version 2
run udpnetwork-0-20180801-14:00:57-17821
attr configname udpnetwork
attr datetime 20180801-14:00:57
attr experiment udpnetwork
attr inifile omnetpp.ini
attr iterationvars ""
attr iterationvarsf ""
attr measurement ""
attr network UdpNetwok
attr processid 17821
attr repetition 0
attr replication #0
attr resultdir results
attr runnumber 0
attr seedset 0
param *.host*.mobility.constraintAreaMinZ 0m
param *.host*.mobility.constraintAreaMinX 0m
param *.host*.mobility.constraintAreaMinY 0m
param *.host*.mobility.constraintAreaMaxX 1000m
param *.host*.mobility.constraintAreaMaxY 1000m
param *.host*.mobility.constraintAreaMaxZ 0m
param *.hostA.numApps 1
param *.hostA.app[0].typename "\"CustomPingApp\""
param *.hostA.app[0].destAddr "\"hostB\""
param *.hostA.app[0].startTime 0s
param *.host*.wlan[*].radio.antenna.typename "\"DipoleAntenna\""
param *.host*.wlan[*].radio.antenna.length 20cm
param **.httpController.config "xmldoc(\"controller_cfg.xml\",\"//controller-profile[@id='uniform']\")"
param **.httpController.events "\"\""
param **.httpController.eventsSection "\"\""
param **.app[0].linkSpeed 10Mbps
param **.app[0].httpProtocol 11
param **.cli*.numApps 1
param **.cli*.app[0].typename "\"HttpBrowserDirect\""
param **.cli*.app[0].logFile "\"\""
param **.cli*.app[0].config "xmldoc(\"browser_cfg.xml\",\"//user-profile[@id='normal']\")"
param **.cli*.app[0].activationTime 0s
param **.srv*.numApps 1
param **.srv*.app[0].typename "\"CustomHttpServerDirect\""
param **.srv*.app[0].hostName "\"www.single.org\""
param **.srv*.app[0].port 80
param **.srv*.app[0].logFile "\"\""
param **.srv*.app[0].config "xmldoc(\"server_cfg.xml\",\"//server-profile[@id='normal']\")"
param **.srv*.app[0].activationTime 0s

vector 0 UdpNetwok.hostA.wlan[0].radio radioMode:vector ETV
attr interpolationmode sample-hold
attr source radioModeChanged
attr title "Radio mode, vector"
vector 1 UdpNetwok.hostB.wlan[0].radio radioMode:vector ETV
attr interpolationmode sample-hold
attr source radioModeChanged
attr title "Radio mode, vector"
vector 2 UdpNetwok.hostA.wlan[0].radio radioChannel:vector ETV
attr interpolationmode sample-hold
attr source radioChannelChanged
attr title "Radio channel, vector"
vector 3 UdpNetwok.hostB.wlan[0].radio radioChannel:vector ETV
attr interpolationmode sample-hold
attr source radioChannelChanged
attr title "Radio channel, vector"
vector 4 UdpNetwok.hostA.wlan[0].radio receptionState:vector ETV
attr interpolationmode sample-hold
attr source receptionStateChanged
attr title "Radio reception state, vector"
vector 5 UdpNetwok.hostB.wlan[0].radio receptionState:vector ETV
attr interpolationmode sample-hold
attr source receptionStateChanged
attr title "Radio reception state, vector"
vector 6 UdpNetwok.hostA.wlan[0].mac.dcf.channelAccess.contention state:vector ETV
attr interpolationmode none
attr source stateChanged
attr title "contention state, vector"
vector 7 UdpNetwok.hostA.wlan[0].mac.hcf.edca.edcaf[0].contention state:vector ETV
attr interpolationmode none
attr source stateChanged
attr title "contention state, vector"
vector 8 UdpNetwok.hostA.wlan[0].mac.hcf.edca.edcaf[1].contention state:vector ETV
attr interpolationmode none
attr source stateChanged
attr title "contention state, vector"
vector 9 UdpNetwok.hostA.wlan[0].mac.hcf.edca.edcaf[2].contention state:vector ETV
attr interpolationmode none
attr source stateChanged
attr title "contention state, vector"
vector 10 UdpNetwok.hostA.wlan[0].mac.hcf.edca.edcaf[3].contention state:vector ETV
attr interpolationmode none
attr source stateChanged
attr title "contention state, vector"
vector 11 UdpNetwok.hostB.wlan[0].mac.dcf.channelAccess.contention state:vector ETV
attr interpolationmode none
attr source stateChanged
attr title "contention state, vector"
vector 12 UdpNetwok.hostB.wlan[0].mac.hcf.edca.edcaf[0].contention state:vector ETV
attr interpolationmode none
attr source stateChanged
attr title "contention state, vector"
vector 13 UdpNetwok.hostB.wlan[0].mac.hcf.edca.edcaf[1].contention state:vector ETV
attr interpolationmode none
attr source stateChanged
attr title "contention state, vector"
vector 14 UdpNetwok.hostB.wlan[0].mac.hcf.edca.edcaf[2].contention state:vector ETV
attr interpolationmode none
attr source stateChanged
attr title "contention state, vector"
vector 15 UdpNetwok.hostB.wlan[0].mac.hcf.edca.edcaf[3].contention state:vector ETV
attr interpolationmode none
attr source stateChanged
attr title "contention state, vector"
vector 16 UdpNetwok.hostA.app[0] pingTxSeq:vector ETV
attr interpolationmode none
attr title "ping tx seq, vector"
vector 17 UdpNetwok.hostA.ipv4.arp arpRequestSent:vector(packetBytes) ETV
attr source arpRequestSent
attr title "ARP request sent, vector(packetBytes)"
vector 18 UdpNetwok.hostA.wlan[0].mac rcvdPkFromHl:vector(packetBytes) ETV
attr interpolationmode none
attr source packetReceivedFromUpper
attr title "packets received from higher layer, vector(packetBytes)"
vector 19 UdpNetwok.hostA.wlan[0].mac sentDownPk:vector(packetBytes) ETV
attr interpolationmode none
attr source packetSentToLower
attr title "packets sent to lower layer, vector(packetBytes)"
vector 20 UdpNetwok.hostA.wlan[0].radio transmissionState:vector ETV
attr interpolationmode sample-hold
attr source transmissionStateChanged
attr title "Radio transmission state, vector"
vector 21 UdpNetwok receptionPower:vector ETV
attr source receptionMinSignalPower(radioMedium.signalArrivalStarted)
vector 22 UdpNetwok.hostB.wlan[0].mac rcvdPkFromLl:vector(packetBytes) ETV
attr interpolationmode none
attr source packetReceivedFromLower
attr title "packets received from lower layer, vector(packetBytes)"
vector 23 UdpNetwok.hostB.wlan[0].mac passedUpPk:vector(packetBytes) ETV
attr interpolationmode none
attr source packetSentToUpper
attr title "packets passed to higher layer, vector(packetBytes)"
vector 24 UdpNetwok.hostB.ipv4.arp arpReplySent:vector(packetBytes) ETV
attr source arpReplySent
attr title "ARP replies sent, vector(packetBytes)"
vector 25 UdpNetwok.hostB.wlan[0].mac rcvdPkFromHl:vector(packetBytes) ETV
attr interpolationmode none
attr source packetReceivedFromUpper
attr title "packets received from higher layer, vector(packetBytes)"
vector 26 UdpNetwok.hostB.wlan[0].mac sentDownPk:vector(packetBytes) ETV
attr interpolationmode none
attr source packetSentToLower
attr title "packets sent to lower layer, vector(packetBytes)"
vector 27 UdpNetwok.hostB.wlan[0].radio transmissionState:vector ETV
attr interpolationmode sample-hold
attr source transmissionStateChanged
attr title "Radio transmission state, vector"
vector 28 UdpNetwok.hostA.wlan[0].mac rcvdPkFromLl:vector(packetBytes) ETV
attr interpolationmode none
attr source packetReceivedFromLower
attr title "packets received from lower layer, vector(packetBytes)"
vector 29 UdpNetwok.hostA.wlan[0].mac passedUpPk:vector(packetBytes) ETV
attr interpolationmode none
attr source packetSentToUpper
attr title "packets passed to higher layer, vector(packetBytes)"
vector 30 UdpNetwok.hostA.app[0] pingRxSeq:vector ETV
attr interpolationmode none
attr title "ping rx seq, vector"
vector 31 UdpNetwok.hostA.app[0] rtt:vector ETV
attr interpolationmode none
attr title "ping round-trip time, vector"
attr unit s
0	0	0	0
0	0	0	0
0	0	0	2
0	9	0.00011	3
0	13	0.00016	2
0	35	0.000411000692	3
0	40	0.000445000692	2
0	46	0.000675000692	3
0	50	0.000745000692	2
0	83	0.001300001384	3
0	88	0.001334001384	2
0	105	1	3
0	109	1.00007	2
0	142	1.000605000692	3
0	147	1.000639000692	2
0	161	2	3
0	165	2.00007	2
0	198	2.000705000692	3
0	203	2.000739000692	2
0	217	3	3
0	221	3.00007	2
0	254	3.000725000692	3
0	259	3.000759000692	2
0	273	4	3
0	277	4.00007	2
0	310	4.000485000692	3
0	315	4.000519000692	2
0	329	5	3
0	333	5.00007	2
0	366	5.000265000692	3
0	371	5.000299000692	2
0	385	6	3
0	389	6.00007	2
0	422	6.000385000692	3
0	427	6.000419000692	2
0	441	7	3
0	445	7.00007	2
0	478	7.000525000692	3
0	483	7.000559000692	2
0	497	8	3
0	501	8.00007	2
0	534	8.000585000692	3
0	539	8.000619000692	2
0	553	9	3
0	557	9.00007	2
0	590	9.000745000692	3
0	595	9.000779000692	2
0	609	10	3
0	613	10.00007	2
0	646	10.000405000692	3
0	651	10.000439000692	2
0	665	11	3
0	669	11.00007	2
0	702	11.000645000692	3
0	707	11.000679000692	2
0	721	12	3
0	725	12.00007	2
0	758	12.000565000692	3
0	763	12.000599000692	2
0	777	13	3
0	781	13.00007	2
0	814	13.000345000692	3
0	819	13.000379000692	2
0	833	14	3
0	837	14.00007	2
0	870	14.000545000692	3
0	875	14.000579000692	2
0	889	15	3
0	893	15.00007	2
0	926	15.000245000692	3
0	931	15.000279000692	2
0	945	16	3
0	949	16.00007	2
0	982	16.000305000692	3
0	987	16.000339000692	2
0	1001	17	3
0	1005	17.00007	2
0	1038	17.000585000692	3
0	1043	17.000619000692	2
0	1057	18	3
0	1061	18.00007	2
0	1094	18.000825000692	3
0	1099	18.000859000692	2
0	1113	19	3
0	1117	19.00007	2
0	1150	19.000625000692	3
0	1155	19.000659000692	2
0	1169	20	3
0	1173	20.00007	2
0	1206	20.000385000692	3
0	1211	20.000419000692	2
0	1225	21	3
0	1229	21.00007	2
0	1262	21.000265000692	3
0	1267	21.000299000692	2
0	1281	22	3
0	1285	22.00007	2
0	1318	22.000745000692	3
0	1323	22.000779000692	2
0	1337	23	3
0	1341	23.00007	2
0	1374	23.000245000692	3
0	1379	23.000279000692	2
0	1393	24	3
0	1397	24.00007	2
0	1430	24.000445000692	3
0	1435	24.000479000692	2
0	1449	25	3
0	1453	25.00007	2
0	1486	25.000705000692	3
0	1491	25.000739000692	2
0	1505	26	3
0	1509	26.00007	2
0	1542	26.000845000692	3
0	1547	26.000879000692	2
0	1561	27	3
0	1565	27.00007	2
0	1598	27.000605000692	3
0	1603	27.000639000692	2
0	1617	28	3
0	1621	28.00007	2
0	1654	28.000805000692	3
0	1659	28.000839000692	2
0	1673	29	3
0	1677	29.00007	2
0	1710	29.000245000692	3
0	1715	29.000279000692	2
0	1729	30	3
0	1733	30.00007	2
0	1766	30.000325000692	3
0	1771	30.000359000692	2
0	1785	31	3
0	1789	31.00007	2
0	1822	31.000345000692	3
0	1827	31.000379000692	2
0	1841	32	3
0	1845	32.00007	2
0	1878	32.000405000692	3
0	1883	32.000439000692	2
0	1897	33	3
0	1901	33.00007	2
0	1934	33.000585000692	3
0	1939	33.000619000692	2
0	1953	34	3
0	1957	34.00007	2
0	1990	34.000325000692	3
0	1995	34.000359000692	2
0	2009	35	3
0	2013	35.00007	2
0	2046	35.000445000692	3
0	2051	35.000479000692	2
0	2065	36	3
0	2069	36.00007	2
0	2102	36.000865000692	3
0	2107	36.000899000692	2
0	2121	37	3
0	2125	37.00007	2
0	2158	37.000265000692	3
0	2163	37.000299000692	2
0	2177	38	3
0	2181	38.00007	2
0	2214	38.000385000692	3
0	2219	38.000419000692	2
0	2233	39	3
0	2237	39.00007	2
0	2270	39.000745000692	3
0	2275	39.000779000692	2
0	2289	40	3
0	2293	40.00007	2
0	2326	40.000365000692	3
0	2331	40.000399000692	2
0	2345	41	3
0	2349	41.00007	2
0	2382	41.000465000692	3
0	2387	41.000499000692	2
0	2401	42	3
0	2405	42.00007	2
0	2438	42.000605000692	3
0	2443	42.000639000692	2
0	2457	43	3
0	2461	43.00007	2
0	2494	43.000245000692	3
0	2499	43.000279000692	2
0	2513	44	3
0	2517	44.00007	2
0	2550	44.000305000692	3
0	2555	44.000339000692	2
0	2569	45	3
0	2573	45.00007	2
0	2606	45.000485000692	3
0	2611	45.000519000692	2
0	2625	46	3
0	2629	46.00007	2
0	2662	46.000445000692	3
0	2667	46.000479000692	2
0	2681	47	3
0	2685	47.00007	2
0	2718	47.000465000692	3
0	2723	47.000499000692	2
0	2737	48	3
0	2741	48.00007	2
0	2774	48.000365000692	3
0	2779	48.000399000692	2
0	2793	49	3
0	2797	49.00007	2
0	2830	49.000545000692	3
0	2835	49.000579000692	2
0	2849	50	3
0	2853	50.00007	2
0	2886	50.000645000692	3
0	2891	50.000679000692	2
0	2905	51	3
0	2909	51.00007	2
0	2942	51.000485000692	3
0	2947	51.000519000692	2
0	2961	52	3
0	2965	52.00007	2
0	2998	52.000645000692	3
0	3003	52.000679000692	2
0	3017	53	3
0	3021	53.00007	2
0	3054	53.000525000692	3
0	3059	53.000559000692	2
0	3073	54	3
0	3077	54.00007	2
0	3110	54.000645000692	3
0	3115	54.000679000692	2
0	3129	55	3
0	3133	55.00007	2
0	3166	55.000765000692	3
0	3171	55.000799000692	2
0	3185	56	3
0	3189	56.00007	2
0	3222	56.000545000692	3
0	3227	56.000579000692	2
0	3241	57	3
0	3245	57.00007	2
0	3278	57.000665000692	3
0	3283	57.000699000692	2
0	3297	58	3
0	3301	58.00007	2
0	3334	58.000565000692	3
0	3339	58.000599000692	2
0	3353	59	3
0	3357	59.00007	2
1	0	0	0
1	0	0	0
1	0	0	2
1	23	0.000350500346	3
1	27	0.000400500346	2
1	60	0.000755501038	3
1	65	0.000789501038	2
1	71	0.001219501038	3
1	75	0.001289501038	2
1	119	1.000080500346	3
1	124	1.000114500346	2
1	130	1.000524500346	3
1	134	1.000594500346	2
1	175	2.000080500346	3
1	180	2.000114500346	2
1	186	2.000624500346	3
1	190	2.000694500346	2
1	231	3.000080500346	3
1	236	3.000114500346	2
1	242	3.000644500346	3
1	246	3.000714500346	2
1	287	4.000080500346	3
1	292	4.000114500346	2
1	298	4.000404500346	3
1	302	4.000474500346	2
1	343	5.000080500346	3
1	348	5.000114500346	2
1	354	5.000184500346	3
1	358	5.000254500346	2
1	399	6.000080500346	3
1	404	6.000114500346	2
1	410	6.000304500346	3
1	414	6.000374500346	2
1	455	7.000080500346	3
1	460	7.000114500346	2
1	466	7.000444500346	3
1	470	7.000514500346	2
1	511	8.000080500346	3
1	516	8.000114500346	2
1	522	8.000504500346	3
1	526	8.000574500346	2
1	567	9.000080500346	3
1	572	9.000114500346	2
1	578	9.000664500346	3
1	582	9.000734500346	2
1	623	10.000080500346	3
1	628	10.000114500346	2
1	634	10.000324500346	3
1	638	10.000394500346	2
1	679	11.000080500346	3
1	684	11.000114500346	2
1	690	11.000564500346	3
1	694	11.000634500346	2
1	735	12.000080500346	3
1	740	12.000114500346	2
1	746	12.000484500346	3
1	750	12.000554500346	2
1	791	13.000080500346	3
1	796	13.000114500346	2
1	802	13.000264500346	3
1	806	13.000334500346	2
1	847	14.000080500346	3
1	852	14.000114500346	2
1	858	14.000464500346	3
1	862	14.000534500346	2
1	903	15.000080500346	3
1	908	15.000114500346	2
1	914	15.000164500346	3
1	918	15.000234500346	2
1	959	16.000080500346	3
1	964	16.000114500346	2
1	970	16.000224500346	3
1	974	16.000294500346	2
1	1015	17.000080500346	3
1	1020	17.000114500346	2
1	1026	17.000504500346	3
1	1030	17.000574500346	2
1	1071	18.000080500346	3
1	1076	18.000114500346	2
1	1082	18.000744500346	3
1	1086	18.000814500346	2
1	1127	19.000080500346	3
1	1132	19.000114500346	2
1	1138	19.000544500346	3
1	1142	19.000614500346	2
1	1183	20.000080500346	3
1	1188	20.000114500346	2
1	1194	20.000304500346	3
1	1198	20.000374500346	2
1	1239	21.000080500346	3
1	1244	21.000114500346	2
1	1250	21.000184500346	3
1	1254	21.000254500346	2
1	1295	22.000080500346	3
1	1300	22.000114500346	2
1	1306	22.000664500346	3
1	1310	22.000734500346	2
1	1351	23.000080500346	3
1	1356	23.000114500346	2
1	1362	23.000164500346	3
1	1366	23.000234500346	2
1	1407	24.000080500346	3
1	1412	24.000114500346	2
1	1418	24.000364500346	3
1	1422	24.000434500346	2
1	1463	25.000080500346	3
1	1468	25.000114500346	2
1	1474	25.000624500346	3
1	1478	25.000694500346	2
1	1519	26.000080500346	3
1	1524	26.000114500346	2
1	1530	26.000764500346	3
1	1534	26.000834500346	2
1	1575	27.000080500346	3
1	1580	27.000114500346	2
1	1586	27.000524500346	3
1	1590	27.000594500346	2
1	1631	28.000080500346	3
1	1636	28.000114500346	2
1	1642	28.000724500346	3
1	1646	28.000794500346	2
1	1687	29.000080500346	3
1	1692	29.000114500346	2
1	1698	29.000164500346	3
1	1702	29.000234500346	2
1	1743	30.000080500346	3
1	1748	30.000114500346	2
1	1754	30.000244500346	3
1	1758	30.000314500346	2
1	1799	31.000080500346	3
1	1804	31.000114500346	2
1	1810	31.000264500346	3
1	1814	31.000334500346	2
1	1855	32.000080500346	3
1	1860	32.000114500346	2
1	1866	32.000324500346	3
1	1870	32.000394500346	2
1	1911	33.000080500346	3
1	1916	33.000114500346	2
1	1922	33.000504500346	3
1	1926	33.000574500346	2
1	1967	34.000080500346	3
1	1972	34.000114500346	2
1	1978	34.000244500346	3
1	1982	34.000314500346	2
1	2023	35.000080500346	3
1	2028	35.000114500346	2
1	2034	35.000364500346	3
1	2038	35.000434500346	2
1	2079	36.000080500346	3
1	2084	36.000114500346	2
1	2090	36.000784500346	3
1	2094	36.000854500346	2
1	2135	37.000080500346	3
1	2140	37.000114500346	2
1	2146	37.000184500346	3
1	2150	37.000254500346	2
1	2191	38.000080500346	3
1	2196	38.000114500346	2
1	2202	38.000304500346	3
1	2206	38.000374500346	2
1	2247	39.000080500346	3
1	2252	39.000114500346	2
1	2258	39.000664500346	3
1	2262	39.000734500346	2
1	2303	40.000080500346	3
1	2308	40.000114500346	2
1	2314	40.000284500346	3
1	2318	40.000354500346	2
1	2359	41.000080500346	3
1	2364	41.000114500346	2
1	2370	41.000384500346	3
1	2374	41.000454500346	2
1	2415	42.000080500346	3
1	2420	42.000114500346	2
1	2426	42.000524500346	3
1	2430	42.000594500346	2
1	2471	43.000080500346	3
1	2476	43.000114500346	2
1	2482	43.000164500346	3
1	2486	43.000234500346	2
1	2527	44.000080500346	3
1	2532	44.000114500346	2
1	2538	44.000224500346	3
1	2542	44.000294500346	2
1	2583	45.000080500346	3
1	2588	45.000114500346	2
1	2594	45.000404500346	3
1	2598	45.000474500346	2
1	2639	46.000080500346	3
1	2644	46.000114500346	2
1	2650	46.000364500346	3
1	2654	46.000434500346	2
1	2695	47.000080500346	3
1	2700	47.000114500346	2
1	2706	47.000384500346	3
1	2710	47.000454500346	2
1	2751	48.000080500346	3
1	2756	48.000114500346	2
1	2762	48.000284500346	3
1	2766	48.000354500346	2
1	2807	49.000080500346	3
1	2812	49.000114500346	2
1	2818	49.000464500346	3
1	2822	49.000534500346	2
1	2863	50.000080500346	3
1	2868	50.000114500346	2
1	2874	50.000564500346	3
1	2878	50.000634500346	2
1	2919	51.000080500346	3
1	2924	51.000114500346	2
1	2930	51.000404500346	3
1	2934	51.000474500346	2
1	2975	52.000080500346	3
1	2980	52.000114500346	2
1	2986	52.000564500346	3
1	2990	52.000634500346	2
1	3031	53.000080500346	3
1	3036	53.000114500346	2
1	3042	53.000444500346	3
1	3046	53.000514500346	2
1	3087	54.000080500346	3
1	3092	54.000114500346	2
1	3098	54.000564500346	3
1	3102	54.000634500346	2
1	3143	55.000080500346	3
1	3148	55.000114500346	2
1	3154	55.000684500346	3
1	3158	55.000754500346	2
1	3199	56.000080500346	3
1	3204	56.000114500346	2
1	3210	56.000464500346	3
1	3214	56.000534500346	2
1	3255	57.000080500346	3
1	3260	57.000114500346	2
1	3266	57.000584500346	3
1	3270	57.000654500346	2
1	3311	58.000080500346	3
1	3316	58.000114500346	2
1	3322	58.000484500346	3
1	3326	58.000554500346	2
2	0	0	0
3	0	0	0
4	0	0	1
4	9	0.00011	0
4	13	0.00016	1
4	25	0.000351000692	3
4	28	0.000401000692	1
4	35	0.000411000692	0
4	40	0.000445000692	1
4	46	0.000675000692	0
4	50	0.000745000692	1
4	62	0.000756001384	3
4	66	0.000790001384	1
4	73	0.001220001384	3
4	76	0.001290001384	1
4	83	0.001300001384	0
4	88	0.001334001384	1
4	105	1	0
4	109	1.00007	1
4	121	1.000081000692	3
4	125	1.000115000692	1
4	132	1.000525000692	3
4	135	1.000595000692	1
4	142	1.000605000692	0
4	147	1.000639000692	1
4	161	2	0
4	165	2.00007	1
4	177	2.000081000692	3
4	181	2.000115000692	1
4	188	2.000625000692	3
4	191	2.000695000692	1
4	198	2.000705000692	0
4	203	2.000739000692	1
4	217	3	0
4	221	3.00007	1
4	233	3.000081000692	3
4	237	3.000115000692	1
4	244	3.000645000692	3
4	247	3.000715000692	1
4	254	3.000725000692	0
4	259	3.000759000692	1
4	273	4	0
4	277	4.00007	1
4	289	4.000081000692	3
4	293	4.000115000692	1
4	300	4.000405000692	3
4	303	4.000475000692	1
4	310	4.000485000692	0
4	315	4.000519000692	1
4	329	5	0
4	333	5.00007	1
4	345	5.000081000692	3
4	349	5.000115000692	1
4	356	5.000185000692	3
4	359	5.000255000692	1
4	366	5.000265000692	0
4	371	5.000299000692	1
4	385	6	0
4	389	6.00007	1
4	401	6.000081000692	3
4	405	6.000115000692	1
4	412	6.000305000692	3
4	415	6.000375000692	1
4	422	6.000385000692	0
4	427	6.000419000692	1
4	441	7	0
4	445	7.00007	1
4	457	7.000081000692	3
4	461	7.000115000692	1
4	468	7.000445000692	3
4	471	7.000515000692	1
4	478	7.000525000692	0
4	483	7.000559000692	1
4	497	8	0
4	501	8.00007	1
4	513	8.000081000692	3
4	517	8.000115000692	1
4	524	8.000505000692	3
4	527	8.000575000692	1
4	534	8.000585000692	0
4	539	8.000619000692	1
4	553	9	0
4	557	9.00007	1
4	569	9.000081000692	3
4	573	9.000115000692	1
4	580	9.000665000692	3
4	583	9.000735000692	1
4	590	9.000745000692	0
4	595	9.000779000692	1
4	609	10	0
4	613	10.00007	1
4	625	10.000081000692	3
4	629	10.000115000692	1
4	636	10.000325000692	3
4	639	10.000395000692	1
4	646	10.000405000692	0
4	651	10.000439000692	1
4	665	11	0
4	669	11.00007	1
4	681	11.000081000692	3
4	685	11.000115000692	1
4	692	11.000565000692	3
4	695	11.000635000692	1
4	702	11.000645000692	0
4	707	11.000679000692	1
4	721	12	0
4	725	12.00007	1
4	737	12.000081000692	3
4	741	12.000115000692	1
4	748	12.000485000692	3
4	751	12.000555000692	1
4	758	12.000565000692	0
4	763	12.000599000692	1
4	777	13	0
4	781	13.00007	1
4	793	13.000081000692	3
4	797	13.000115000692	1
4	804	13.000265000692	3
4	807	13.000335000692	1
4	814	13.000345000692	0
4	819	13.000379000692	1
4	833	14	0
4	837	14.00007	1
4	849	14.000081000692	3
4	853	14.000115000692	1
4	860	14.000465000692	3
4	863	14.000535000692	1
4	870	14.000545000692	0
4	875	14.000579000692	1
4	889	15	0
4	893	15.00007	1
4	905	15.000081000692	3
4	909	15.000115000692	1
4	916	15.000165000692	3
4	919	15.000235000692	1
4	926	15.000245000692	0
4	931	15.000279000692	1
4	945	16	0
4	949	16.00007	1
4	961	16.000081000692	3
4	965	16.000115000692	1
4	972	16.000225000692	3
4	975	16.000295000692	1
4	982	16.000305000692	0
4	987	16.000339000692	1
4	1001	17	0
4	1005	17.00007	1
4	1017	17.000081000692	3
4	1021	17.000115000692	1
4	1028	17.000505000692	3
4	1031	17.000575000692	1
4	1038	17.000585000692	0
4	1043	17.000619000692	1
4	1057	18	0
4	1061	18.00007	1
4	1073	18.000081000692	3
4	1077	18.000115000692	1
4	1084	18.000745000692	3
4	1087	18.000815000692	1
4	1094	18.000825000692	0
4	1099	18.000859000692	1
4	1113	19	0
4	1117	19.00007	1
4	1129	19.000081000692	3
4	1133	19.000115000692	1
4	1140	19.000545000692	3
4	1143	19.000615000692	1
4	1150	19.000625000692	0
4	1155	19.000659000692	1
4	1169	20	0
4	1173	20.00007	1
4	1185	20.000081000692	3
4	1189	20.000115000692	1
4	1196	20.000305000692	3
4	1199	20.000375000692	1
4	1206	20.000385000692	0
4	1211	20.000419000692	1
4	1225	21	0
4	1229	21.00007	1
4	1241	21.000081000692	3
4	1245	21.000115000692	1
4	1252	21.000185000692	3
4	1255	21.000255000692	1
4	1262	21.000265000692	0
4	1267	21.000299000692	1
4	1281	22	0
4	1285	22.00007	1
4	1297	22.000081000692	3
4	1301	22.000115000692	1
4	1308	22.000665000692	3
4	1311	22.000735000692	1
4	1318	22.000745000692	0
4	1323	22.000779000692	1
4	1337	23	0
4	1341	23.00007	1
4	1353	23.000081000692	3
4	1357	23.000115000692	1
4	1364	23.000165000692	3
4	1367	23.000235000692	1
4	1374	23.000245000692	0
4	1379	23.000279000692	1
4	1393	24	0
4	1397	24.00007	1
4	1409	24.000081000692	3
4	1413	24.000115000692	1
4	1420	24.000365000692	3
4	1423	24.000435000692	1
4	1430	24.000445000692	0
4	1435	24.000479000692	1
4	1449	25	0
4	1453	25.00007	1
4	1465	25.000081000692	3
4	1469	25.000115000692	1
4	1476	25.000625000692	3
4	1479	25.000695000692	1
4	1486	25.000705000692	0
4	1491	25.000739000692	1
4	1505	26	0
4	1509	26.00007	1
4	1521	26.000081000692	3
4	1525	26.000115000692	1
4	1532	26.000765000692	3
4	1535	26.000835000692	1
4	1542	26.000845000692	0
4	1547	26.000879000692	1
4	1561	27	0
4	1565	27.00007	1
4	1577	27.000081000692	3
4	1581	27.000115000692	1
4	1588	27.000525000692	3
4	1591	27.000595000692	1
4	1598	27.000605000692	0
4	1603	27.000639000692	1
4	1617	28	0
4	1621	28.00007	1
4	1633	28.000081000692	3
4	1637	28.000115000692	1
4	1644	28.000725000692	3
4	1647	28.000795000692	1
4	1654	28.000805000692	0
4	1659	28.000839000692	1
4	1673	29	0
4	1677	29.00007	1
4	1689	29.000081000692	3
4	1693	29.000115000692	1
4	1700	29.000165000692	3
4	1703	29.000235000692	1
4	1710	29.000245000692	0
4	1715	29.000279000692	1
4	1729	30	0
4	1733	30.00007	1
4	1745	30.000081000692	3
4	1749	30.000115000692	1
4	1756	30.000245000692	3
4	1759	30.000315000692	1
4	1766	30.000325000692	0
4	1771	30.000359000692	1
4	1785	31	0
4	1789	31.00007	1
4	1801	31.000081000692	3
4	1805	31.000115000692	1
4	1812	31.000265000692	3
4	1815	31.000335000692	1
4	1822	31.000345000692	0
4	1827	31.000379000692	1
4	1841	32	0
4	1845	32.00007	1
4	1857	32.000081000692	3
4	1861	32.000115000692	1
4	1868	32.000325000692	3
4	1871	32.000395000692	1
4	1878	32.000405000692	0
4	1883	32.000439000692	1
4	1897	33	0
4	1901	33.00007	1
4	1913	33.000081000692	3
4	1917	33.000115000692	1
4	1924	33.000505000692	3
4	1927	33.000575000692	1
4	1934	33.000585000692	0
4	1939	33.000619000692	1
4	1953	34	0
4	1957	34.00007	1
4	1969	34.000081000692	3
4	1973	34.000115000692	1
4	1980	34.000245000692	3
4	1983	34.000315000692	1
4	1990	34.000325000692	0
4	1995	34.000359000692	1
4	2009	35	0
4	2013	35.00007	1
4	2025	35.000081000692	3
4	2029	35.000115000692	1
4	2036	35.000365000692	3
4	2039	35.000435000692	1
4	2046	35.000445000692	0
4	2051	35.000479000692	1
4	2065	36	0
4	2069	36.00007	1
4	2081	36.000081000692	3
4	2085	36.000115000692	1
4	2092	36.000785000692	3
4	2095	36.000855000692	1
4	2102	36.000865000692	0
4	2107	36.000899000692	1
4	2121	37	0
4	2125	37.00007	1
4	2137	37.000081000692	3
4	2141	37.000115000692	1
4	2148	37.000185000692	3
4	2151	37.000255000692	1
4	2158	37.000265000692	0
4	2163	37.000299000692	1
4	2177	38	0
4	2181	38.00007	1
4	2193	38.000081000692	3
4	2197	38.000115000692	1
4	2204	38.000305000692	3
4	2207	38.000375000692	1
4	2214	38.000385000692	0
4	2219	38.000419000692	1
4	2233	39	0
4	2237	39.00007	1
4	2249	39.000081000692	3
4	2253	39.000115000692	1
4	2260	39.000665000692	3
4	2263	39.000735000692	1
4	2270	39.000745000692	0
4	2275	39.000779000692	1
4	2289	40	0
4	2293	40.00007	1
4	2305	40.000081000692	3
4	2309	40.000115000692	1
4	2316	40.000285000692	3
4	2319	40.000355000692	1
4	2326	40.000365000692	0
4	2331	40.000399000692	1
4	2345	41	0
4	2349	41.00007	1
4	2361	41.000081000692	3
4	2365	41.000115000692	1
4	2372	41.000385000692	3
4	2375	41.000455000692	1
4	2382	41.000465000692	0
4	2387	41.000499000692	1
4	2401	42	0
4	2405	42.00007	1
4	2417	42.000081000692	3
4	2421	42.000115000692	1
4	2428	42.000525000692	3
4	2431	42.000595000692	1
4	2438	42.000605000692	0
4	2443	42.000639000692	1
4	2457	43	0
4	2461	43.00007	1
4	2473	43.000081000692	3
4	2477	43.000115000692	1
4	2484	43.000165000692	3
4	2487	43.000235000692	1
4	2494	43.000245000692	0
4	2499	43.000279000692	1
4	2513	44	0
4	2517	44.00007	1
4	2529	44.000081000692	3
4	2533	44.000115000692	1
4	2540	44.000225000692	3
4	2543	44.000295000692	1
4	2550	44.000305000692	0
4	2555	44.000339000692	1
4	2569	45	0
4	2573	45.00007	1
4	2585	45.000081000692	3
4	2589	45.000115000692	1
4	2596	45.000405000692	3
4	2599	45.000475000692	1
4	2606	45.000485000692	0
4	2611	45.000519000692	1
4	2625	46	0
4	2629	46.00007	1
4	2641	46.000081000692	3
4	2645	46.000115000692	1
4	2652	46.000365000692	3
4	2655	46.000435000692	1
4	2662	46.000445000692	0
4	2667	46.000479000692	1
4	2681	47	0
4	2685	47.00007	1
4	2697	47.000081000692	3
4	2701	47.000115000692	1
4	2708	47.000385000692	3
4	2711	47.000455000692	1
4	2718	47.000465000692	0
4	2723	47.000499000692	1
4	2737	48	0
4	2741	48.00007	1
4	2753	48.000081000692	3
4	2757	48.000115000692	1
4	2764	48.000285000692	3
4	2767	48.000355000692	1
4	2774	48.000365000692	0
4	2779	48.000399000692	1
4	2793	49	0
4	2797	49.00007	1
4	2809	49.000081000692	3
4	2813	49.000115000692	1
4	2820	49.000465000692	3
4	2823	49.000535000692	1
4	2830	49.000545000692	0
4	2835	49.000579000692	1
4	2849	50	0
4	2853	50.00007	1
4	2865	50.000081000692	3
4	2869	50.000115000692	1
4	2876	50.000565000692	3
4	2879	50.000635000692	1
4	2886	50.000645000692	0
4	2891	50.000679000692	1
4	2905	51	0
4	2909	51.00007	1
4	2921	51.000081000692	3
4	2925	51.000115000692	1
4	2932	51.000405000692	3
4	2935	51.000475000692	1
4	2942	51.000485000692	0
4	2947	51.000519000692	1
4	2961	52	0
4	2965	52.00007	1
4	2977	52.000081000692	3
4	2981	52.000115000692	1
4	2988	52.000565000692	3
4	2991	52.000635000692	1
4	2998	52.000645000692	0
4	3003	52.000679000692	1
4	3017	53	0
4	3021	53.00007	1
4	3033	53.000081000692	3
4	3037	53.000115000692	1
4	3044	53.000445000692	3
4	3047	53.000515000692	1
4	3054	53.000525000692	0
4	3059	53.000559000692	1
4	3073	54	0
4	3077	54.00007	1
4	3089	54.000081000692	3
4	3093	54.000115000692	1
4	3100	54.000565000692	3
4	3103	54.000635000692	1
4	3110	54.000645000692	0
4	3115	54.000679000692	1
4	3129	55	0
4	3133	55.00007	1
4	3145	55.000081000692	3
4	3149	55.000115000692	1
4	3156	55.000685000692	3
4	3159	55.000755000692	1
4	3166	55.000765000692	0
4	3171	55.000799000692	1
4	3185	56	0
4	3189	56.00007	1
4	3201	56.000081000692	3
4	3205	56.000115000692	1
4	3212	56.000465000692	3
4	3215	56.000535000692	1
4	3222	56.000545000692	0
4	3227	56.000579000692	1
4	3241	57	0
4	3245	57.00007	1
4	3257	57.000081000692	3
4	3261	57.000115000692	1
4	3268	57.000585000692	3
4	3271	57.000655000692	1
4	3278	57.000665000692	0
4	3283	57.000699000692	1
4	3297	58	0
4	3301	58.00007	1
4	3313	58.000081000692	3
4	3317	58.000115000692	1
4	3324	58.000485000692	3
4	3327	58.000555000692	1
4	3334	58.000565000692	0
4	3339	58.000599000692	1
4	3353	59	0
4	3357	59.00007	1
5	0	0	1
5	11	0.000110500346	3
5	14	0.000160500346	1
5	23	0.000350500346	0
5	27	0.000400500346	1
5	37	0.000411501038	3
5	41	0.000445501038	1
5	48	0.000675501038	3
5	51	0.000745501038	1
5	60	0.000755501038	0
5	65	0.000789501038	1
5	71	0.001219501038	0
5	75	0.001289501038	1
5	85	0.00130050173	3
5	89	0.00133450173	1
5	107	1.000000500346	3
5	110	1.000070500346	1
5	119	1.000080500346	0
5	124	1.000114500346	1
5	130	1.000524500346	0
5	134	1.000594500346	1
5	144	1.000605501038	3
5	148	1.000639501038	1
5	163	2.000000500346	3
5	166	2.000070500346	1
5	175	2.000080500346	0
5	180	2.000114500346	1
5	186	2.000624500346	0
5	190	2.000694500346	1
5	200	2.000705501038	3
5	204	2.000739501038	1
5	219	3.000000500346	3
5	222	3.000070500346	1
5	231	3.000080500346	0
5	236	3.000114500346	1
5	242	3.000644500346	0
5	246	3.000714500346	1
5	256	3.000725501038	3
5	260	3.000759501038	1
5	275	4.000000500346	3
5	278	4.000070500346	1
5	287	4.000080500346	0
5	292	4.000114500346	1
5	298	4.000404500346	0
5	302	4.000474500346	1
5	312	4.000485501038	3
5	316	4.000519501038	1
5	331	5.000000500346	3
5	334	5.000070500346	1
5	343	5.000080500346	0
5	348	5.000114500346	1
5	354	5.000184500346	0
5	358	5.000254500346	1
5	368	5.000265501038	3
5	372	5.000299501038	1
5	387	6.000000500346	3
5	390	6.000070500346	1
5	399	6.000080500346	0
5	404	6.000114500346	1
5	410	6.000304500346	0
5	414	6.000374500346	1
5	424	6.000385501038	3
5	428	6.000419501038	1
5	443	7.000000500346	3
5	446	7.000070500346	1
5	455	7.000080500346	0
5	460	7.000114500346	1
5	466	7.000444500346	0
5	470	7.000514500346	1
5	480	7.000525501038	3
5	484	7.000559501038	1
5	499	8.000000500346	3
5	502	8.000070500346	1
5	511	8.000080500346	0
5	516	8.000114500346	1
5	522	8.000504500346	0
5	526	8.000574500346	1
5	536	8.000585501038	3
5	540	8.000619501038	1
5	555	9.000000500346	3
5	558	9.000070500346	1
5	567	9.000080500346	0
5	572	9.000114500346	1
5	578	9.000664500346	0
5	582	9.000734500346	1
5	592	9.000745501038	3
5	596	9.000779501038	1
5	611	10.000000500346	3
5	614	10.000070500346	1
5	623	10.000080500346	0
5	628	10.000114500346	1
5	634	10.000324500346	0
5	638	10.000394500346	1
5	648	10.000405501038	3
5	652	10.000439501038	1
5	667	11.000000500346	3
5	670	11.000070500346	1
5	679	11.000080500346	0
5	684	11.000114500346	1
5	690	11.000564500346	0
5	694	11.000634500346	1
5	704	11.000645501038	3
5	708	11.000679501038	1
5	723	12.000000500346	3
5	726	12.000070500346	1
5	735	12.000080500346	0
5	740	12.000114500346	1
5	746	12.000484500346	0
5	750	12.000554500346	1
5	760	12.000565501038	3
5	764	12.000599501038	1
5	779	13.000000500346	3
5	782	13.000070500346	1
5	791	13.000080500346	0
5	796	13.000114500346	1
5	802	13.000264500346	0
5	806	13.000334500346	1
5	816	13.000345501038	3
5	820	13.000379501038	1
5	835	14.000000500346	3
5	838	14.000070500346	1
5	847	14.000080500346	0
5	852	14.000114500346	1
5	858	14.000464500346	0
5	862	14.000534500346	1
5	872	14.000545501038	3
5	876	14.000579501038	1
5	891	15.000000500346	3
5	894	15.000070500346	1
5	903	15.000080500346	0
5	908	15.000114500346	1
5	914	15.000164500346	0
5	918	15.000234500346	1
5	928	15.000245501038	3
5	932	15.000279501038	1
5	947	16.000000500346	3
5	950	16.000070500346	1
5	959	16.000080500346	0
5	964	16.000114500346	1
5	970	16.000224500346	0
5	974	16.000294500346	1
5	984	16.000305501038	3
5	988	16.000339501038	1
5	1003	17.000000500346	3
5	1006	17.000070500346	1
5	1015	17.000080500346	0
5	1020	17.000114500346	1
5	1026	17.000504500346	0
5	1030	17.000574500346	1
5	1040	17.000585501038	3
5	1044	17.000619501038	1
5	1059	18.000000500346	3
5	1062	18.000070500346	1
5	1071	18.000080500346	0
5	1076	18.000114500346	1
5	1082	18.000744500346	0
5	1086	18.000814500346	1
5	1096	18.000825501038	3
5	1100	18.000859501038	1
5	1115	19.000000500346	3
5	1118	19.000070500346	1
5	1127	19.000080500346	0
5	1132	19.000114500346	1
5	1138	19.000544500346	0
5	1142	19.000614500346	1
5	1152	19.000625501038	3
5	1156	19.000659501038	1
5	1171	20.000000500346	3
5	1174	20.000070500346	1
5	1183	20.000080500346	0
5	1188	20.000114500346	1
5	1194	20.000304500346	0
5	1198	20.000374500346	1
5	1208	20.000385501038	3
5	1212	20.000419501038	1
5	1227	21.000000500346	3
5	1230	21.000070500346	1
5	1239	21.000080500346	0
5	1244	21.000114500346	1
5	1250	21.000184500346	0
5	1254	21.000254500346	1
5	1264	21.000265501038	3
5	1268	21.000299501038	1
5	1283	22.000000500346	3
5	1286	22.000070500346	1
5	1295	22.000080500346	0
5	1300	22.000114500346	1
5	1306	22.000664500346	0
5	1310	22.000734500346	1
5	1320	22.000745501038	3
5	1324	22.000779501038	1
5	1339	23.000000500346	3
5	1342	23.000070500346	1
5	1351	23.000080500346	0
5	1356	23.000114500346	1
5	1362	23.000164500346	0
5	1366	23.000234500346	1
5	1376	23.000245501038	3
5	1380	23.000279501038	1
5	1395	24.000000500346	3
5	1398	24.000070500346	1
5	1407	24.000080500346	0
5	1412	24.000114500346	1
5	1418	24.000364500346	0
5	1422	24.000434500346	1
5	1432	24.000445501038	3
5	1436	24.000479501038	1
5	1451	25.000000500346	3
5	1454	25.000070500346	1
5	1463	25.000080500346	0
5	1468	25.000114500346	1
5	1474	25.000624500346	0
5	1478	25.000694500346	1
5	1488	25.000705501038	3
5	1492	25.000739501038	1
5	1507	26.000000500346	3
5	1510	26.000070500346	1
5	1519	26.000080500346	0
5	1524	26.000114500346	1
5	1530	26.000764500346	0
5	1534	26.000834500346	1
5	1544	26.000845501038	3
5	1548	26.000879501038	1
5	1563	27.000000500346	3
5	1566	27.000070500346	1
5	1575	27.000080500346	0
5	1580	27.000114500346	1
5	1586	27.000524500346	0
5	1590	27.000594500346	1
5	1600	27.000605501038	3
5	1604	27.000639501038	1
5	1619	28.000000500346	3
5	1622	28.000070500346	1
5	1631	28.000080500346	0
5	1636	28.000114500346	1
5	1642	28.000724500346	0
5	1646	28.000794500346	1
5	1656	28.000805501038	3
5	1660	28.000839501038	1
5	1675	29.000000500346	3
5	1678	29.000070500346	1
5	1687	29.000080500346	0
5	1692	29.000114500346	1
5	1698	29.000164500346	0
5	1702	29.000234500346	1
5	1712	29.000245501038	3
5	1716	29.000279501038	1
5	1731	30.000000500346	3
5	1734	30.000070500346	1
5	1743	30.000080500346	0
5	1748	30.000114500346	1
5	1754	30.000244500346	0
5	1758	30.000314500346	1
5	1768	30.000325501038	3
5	1772	30.000359501038	1
5	1787	31.000000500346	3
5	1790	31.000070500346	1
5	1799	31.000080500346	0
5	1804	31.000114500346	1
5	1810	31.000264500346	0
5	1814	31.000334500346	1
5	1824	31.000345501038	3
5	1828	31.000379501038	1
5	1843	32.000000500346	3
5	1846	32.000070500346	1
5	1855	32.000080500346	0
5	1860	32.000114500346	1
5	1866	32.000324500346	0
5	1870	32.000394500346	1
5	1880	32.000405501038	3
5	1884	32.000439501038	1
5	1899	33.000000500346	3
5	1902	33.000070500346	1
5	1911	33.000080500346	0
5	1916	33.000114500346	1
5	1922	33.000504500346	0
5	1926	33.000574500346	1
5	1936	33.000585501038	3
5	1940	33.000619501038	1
5	1955	34.000000500346	3
5	1958	34.000070500346	1
5	1967	34.000080500346	0
5	1972	34.000114500346	1
5	1978	34.000244500346	0
5	1982	34.000314500346	1
5	1992	34.000325501038	3
5	1996	34.000359501038	1
5	2011	35.000000500346	3
5	2014	35.000070500346	1
5	2023	35.000080500346	0
5	2028	35.000114500346	1
5	2034	35.000364500346	0
5	2038	35.000434500346	1
5	2048	35.000445501038	3
5	2052	35.000479501038	1
5	2067	36.000000500346	3
5	2070	36.000070500346	1
5	2079	36.000080500346	0
5	2084	36.000114500346	1
5	2090	36.000784500346	0
5	2094	36.000854500346	1
5	2104	36.000865501038	3
5	2108	36.000899501038	1
5	2123	37.000000500346	3
5	2126	37.000070500346	1
5	2135	37.000080500346	0
5	2140	37.000114500346	1
5	2146	37.000184500346	0
5	2150	37.000254500346	1
5	2160	37.000265501038	3
5	2164	37.000299501038	1
5	2179	38.000000500346	3
5	2182	38.000070500346	1
5	2191	38.000080500346	0
5	2196	38.000114500346	1
5	2202	38.000304500346	0
5	2206	38.000374500346	1
5	2216	38.000385501038	3
5	2220	38.000419501038	1
5	2235	39.000000500346	3
5	2238	39.000070500346	1
5	2247	39.000080500346	0
5	2252	39.000114500346	1
5	2258	39.000664500346	0
5	2262	39.000734500346	1
5	2272	39.000745501038	3
5	2276	39.000779501038	1
5	2291	40.000000500346	3
5	2294	40.000070500346	1
5	2303	40.000080500346	0
5	2308	40.000114500346	1
5	2314	40.000284500346	0
5	2318	40.000354500346	1
5	2328	40.000365501038	3
5	2332	40.000399501038	1
5	2347	41.000000500346	3
5	2350	41.000070500346	1
5	2359	41.000080500346	0
5	2364	41.000114500346	1
5	2370	41.000384500346	0
5	2374	41.000454500346	1
5	2384	41.000465501038	3
5	2388	41.000499501038	1
5	2403	42.000000500346	3
5	2406	42.000070500346	1
5	2415	42.000080500346	0
5	2420	42.000114500346	1
5	2426	42.000524500346	0
5	2430	42.000594500346	1
5	2440	42.000605501038	3
5	2444	42.000639501038	1
5	2459	43.000000500346	3
5	2462	43.000070500346	1
5	2471	43.000080500346	0
5	2476	43.000114500346	1
5	2482	43.000164500346	0
5	2486	43.000234500346	1
5	2496	43.000245501038	3
5	2500	43.000279501038	1
5	2515	44.000000500346	3
5	2518	44.000070500346	1
5	2527	44.000080500346	0
5	2532	44.000114500346	1
5	2538	44.000224500346	0
5	2542	44.000294500346	1
5	2552	44.000305501038	3
5	2556	44.000339501038	1
5	2571	45.000000500346	3
5	2574	45.000070500346	1
5	2583	45.000080500346	0
5	2588	45.000114500346	1
5	2594	45.000404500346	0
5	2598	45.000474500346	1
5	2608	45.000485501038	3
5	2612	45.000519501038	1
5	2627	46.000000500346	3
5	2630	46.000070500346	1
5	2639	46.000080500346	0
5	2644	46.000114500346	1
5	2650	46.000364500346	0
5	2654	46.000434500346	1
5	2664	46.000445501038	3
5	2668	46.000479501038	1
5	2683	47.000000500346	3
5	2686	47.000070500346	1
5	2695	47.000080500346	0
5	2700	47.000114500346	1
5	2706	47.000384500346	0
5	2710	47.000454500346	1
5	2720	47.000465501038	3
5	2724	47.000499501038	1
5	2739	48.000000500346	3
5	2742	48.000070500346	1
5	2751	48.000080500346	0
5	2756	48.000114500346	1
5	2762	48.000284500346	0
5	2766	48.000354500346	1
5	2776	48.000365501038	3
5	2780	48.000399501038	1
5	2795	49.000000500346	3
5	2798	49.000070500346	1
5	2807	49.000080500346	0
5	2812	49.000114500346	1
5	2818	49.000464500346	0
5	2822	49.000534500346	1
5	2832	49.000545501038	3
5	2836	49.000579501038	1
5	2851	50.000000500346	3
5	2854	50.000070500346	1
5	2863	50.000080500346	0
5	2868	50.000114500346	1
5	2874	50.000564500346	0
5	2878	50.000634500346	1
5	2888	50.000645501038	3
5	2892	50.000679501038	1
5	2907	51.000000500346	3
5	2910	51.000070500346	1
5	2919	51.000080500346	0
5	2924	51.000114500346	1
5	2930	51.000404500346	0
5	2934	51.000474500346	1
5	2944	51.000485501038	3
5	2948	51.000519501038	1
5	2963	52.000000500346	3
5	2966	52.000070500346	1
5	2975	52.000080500346	0
5	2980	52.000114500346	1
5	2986	52.000564500346	0
5	2990	52.000634500346	1
5	3000	52.000645501038	3
5	3004	52.000679501038	1
5	3019	53.000000500346	3
5	3022	53.000070500346	1
5	3031	53.000080500346	0
5	3036	53.000114500346	1
5	3042	53.000444500346	0
5	3046	53.000514500346	1
5	3056	53.000525501038	3
5	3060	53.000559501038	1
5	3075	54.000000500346	3
5	3078	54.000070500346	1
5	3087	54.000080500346	0
5	3092	54.000114500346	1
5	3098	54.000564500346	0
5	3102	54.000634500346	1
5	3112	54.000645501038	3
5	3116	54.000679501038	1
5	3131	55.000000500346	3
5	3134	55.000070500346	1
5	3143	55.000080500346	0
5	3148	55.000114500346	1
5	3154	55.000684500346	0
5	3158	55.000754500346	1
5	3168	55.000765501038	3
5	3172	55.000799501038	1
5	3187	56.000000500346	3
5	3190	56.000070500346	1
5	3199	56.000080500346	0
5	3204	56.000114500346	1
5	3210	56.000464500346	0
5	3214	56.000534500346	1
5	3224	56.000545501038	3
5	3228	56.000579501038	1
5	3243	57.000000500346	3
5	3246	57.000070500346	1
5	3255	57.000080500346	0
5	3260	57.000114500346	1
5	3266	57.000584500346	0
5	3270	57.000654500346	1
5	3280	57.000665501038	3
5	3284	57.000699501038	1
5	3299	58.000000500346	3
5	3302	58.000070500346	1
5	3311	58.000080500346	0
5	3316	58.000114500346	1
5	3322	58.000484500346	0
5	3326	58.000554500346	1
5	3336	58.000565501038	3
5	3340	58.000599501038	1
5	3355	59.000000500346	3
6	0	0	0
6	0	0	0
6	5	0	0
6	5	0	2
6	6	0.00011	2
6	6	0.00011	0
6	9	0.00011	0
6	9	0.00011	0
6	13	0.00016	0
6	13	0.00016	0
6	25	0.000351000692	0
6	25	0.000351000692	0
6	28	0.000401000692	0
6	28	0.000401000692	0
6	33	0.000401000692	0
6	33	0.000401000692	2
6	35	0.000411000692	2
6	35	0.000411000692	1
6	40	0.000445000692	1
6	40	0.000445000692	2
6	43	0.000675000692	2
6	43	0.000675000692	0
6	46	0.000675000692	0
6	46	0.000675000692	0
6	66	0.000790001384	0
6	66	0.000790001384	0
6	73	0.001220001384	0
6	73	0.001220001384	0
6	76	0.001290001384	0
6	76	0.001290001384	0
6	83	0.001300001384	0
6	83	0.001300001384	0
6	88	0.001334001384	0
6	88	0.001334001384	0
6	101	1	0
6	101	1	2
6	102	1	2
6	102	1	0
6	105	1	0
6	105	1	0
6	125	1.000115000692	0
6	125	1.000115000692	0
6	132	1.000525000692	0
6	132	1.000525000692	0
6	135	1.000595000692	0
6	135	1.000595000692	0
6	142	1.000605000692	0
6	142	1.000605000692	0
6	147	1.000639000692	0
6	147	1.000639000692	0
6	157	2	0
6	157	2	2
6	158	2	2
6	158	2	0
6	161	2	0
6	161	2	0
6	181	2.000115000692	0
6	181	2.000115000692	0
6	188	2.000625000692	0
6	188	2.000625000692	0
6	191	2.000695000692	0
6	191	2.000695000692	0
6	198	2.000705000692	0
6	198	2.000705000692	0
6	203	2.000739000692	0
6	203	2.000739000692	0
6	213	3	0
6	213	3	2
6	214	3	2
6	214	3	0
6	217	3	0
6	217	3	0
6	237	3.000115000692	0
6	237	3.000115000692	0
6	244	3.000645000692	0
6	244	3.000645000692	0
6	247	3.000715000692	0
6	247	3.000715000692	0
6	254	3.000725000692	0
6	254	3.000725000692	0
6	259	3.000759000692	0
6	259	3.000759000692	0
6	269	4	0
6	269	4	2
6	270	4	2
6	270	4	0
6	273	4	0
6	273	4	0
6	293	4.000115000692	0
6	293	4.000115000692	0
6	300	4.000405000692	0
6	300	4.000405000692	0
6	303	4.000475000692	0
6	303	4.000475000692	0
6	310	4.000485000692	0
6	310	4.000485000692	0
6	315	4.000519000692	0
6	315	4.000519000692	0
6	325	5	0
6	325	5	2
6	326	5	2
6	326	5	0
6	329	5	0
6	329	5	0
6	349	5.000115000692	0
6	349	5.000115000692	0
6	356	5.000185000692	0
6	356	5.000185000692	0
6	359	5.000255000692	0
6	359	5.000255000692	0
6	366	5.000265000692	0
6	366	5.000265000692	0
6	371	5.000299000692	0
6	371	5.000299000692	0
6	381	6	0
6	381	6	2
6	382	6	2
6	382	6	0
6	385	6	0
6	385	6	0
6	405	6.000115000692	0
6	405	6.000115000692	0
6	412	6.000305000692	0
6	412	6.000305000692	0
6	415	6.000375000692	0
6	415	6.000375000692	0
6	422	6.000385000692	0
6	422	6.000385000692	0
6	427	6.000419000692	0
6	427	6.000419000692	0
6	437	7	0
6	437	7	2
6	438	7	2
6	438	7	0
6	441	7	0
6	441	7	0
6	461	7.000115000692	0
6	461	7.000115000692	0
6	468	7.000445000692	0
6	468	7.000445000692	0
6	471	7.000515000692	0
6	471	7.000515000692	0
6	478	7.000525000692	0
6	478	7.000525000692	0
6	483	7.000559000692	0
6	483	7.000559000692	0
6	493	8	0
6	493	8	2
6	494	8	2
6	494	8	0
6	497	8	0
6	497	8	0
6	517	8.000115000692	0
6	517	8.000115000692	0
6	524	8.000505000692	0
6	524	8.000505000692	0
6	527	8.000575000692	0
6	527	8.000575000692	0
6	534	8.000585000692	0
6	534	8.000585000692	0
6	539	8.000619000692	0
6	539	8.000619000692	0
6	549	9	0
6	549	9	2
6	550	9	2
6	550	9	0
6	553	9	0
6	553	9	0
6	573	9.000115000692	0
6	573	9.000115000692	0
6	580	9.000665000692	0
6	580	9.000665000692	0
6	583	9.000735000692	0
6	583	9.000735000692	0
6	590	9.000745000692	0
6	590	9.000745000692	0
6	595	9.000779000692	0
6	595	9.000779000692	0
6	605	10	0
6	605	10	2
6	606	10	2
6	606	10	0
6	609	10	0
6	609	10	0
6	629	10.000115000692	0
6	629	10.000115000692	0
6	636	10.000325000692	0
6	636	10.000325000692	0
6	639	10.000395000692	0
6	639	10.000395000692	0
6	646	10.000405000692	0
6	646	10.000405000692	0
6	651	10.000439000692	0
6	651	10.000439000692	0
6	661	11	0
6	661	11	2
6	662	11	2
6	662	11	0
6	665	11	0
6	665	11	0
6	685	11.000115000692	0
6	685	11.000115000692	0
6	692	11.000565000692	0
6	692	11.000565000692	0
6	695	11.000635000692	0
6	695	11.000635000692	0
6	702	11.000645000692	0
6	702	11.000645000692	0
6	707	11.000679000692	0
6	707	11.000679000692	0
6	717	12	0
6	717	12	2
6	718	12	2
6	718	12	0
6	721	12	0
6	721	12	0
6	741	12.000115000692	0
6	741	12.000115000692	0
6	748	12.000485000692	0
6	748	12.000485000692	0
6	751	12.000555000692	0
6	751	12.000555000692	0
6	758	12.000565000692	0
6	758	12.000565000692	0
6	763	12.000599000692	0
6	763	12.000599000692	0
6	773	13	0
6	773	13	2
6	774	13	2
6	774	13	0
6	777	13	0
6	777	13	0
6	797	13.000115000692	0
6	797	13.000115000692	0
6	804	13.000265000692	0
6	804	13.000265000692	0
6	807	13.000335000692	0
6	807	13.000335000692	0
6	814	13.000345000692	0
6	814	13.000345000692	0
6	819	13.000379000692	0
6	819	13.000379000692	0
6	829	14	0
6	829	14	2
6	830	14	2
6	830	14	0
6	833	14	0
6	833	14	0
6	853	14.000115000692	0
6	853	14.000115000692	0
6	860	14.000465000692	0
6	860	14.000465000692	0
6	863	14.000535000692	0
6	863	14.000535000692	0
6	870	14.000545000692	0
6	870	14.000545000692	0
6	875	14.000579000692	0
6	875	14.000579000692	0
6	885	15	0
6	885	15	2
6	886	15	2
6	886	15	0
6	889	15	0
6	889	15	0
6	909	15.000115000692	0
6	909	15.000115000692	0
6	916	15.000165000692	0
6	916	15.000165000692	0
6	919	15.000235000692	0
6	919	15.000235000692	0
6	926	15.000245000692	0
6	926	15.000245000692	0
6	931	15.000279000692	0
6	931	15.000279000692	0
6	941	16	0
6	941	16	2
6	942	16	2
6	942	16	0
6	945	16	0
6	945	16	0
6	965	16.000115000692	0
6	965	16.000115000692	0
6	972	16.000225000692	0
6	972	16.000225000692	0
6	975	16.000295000692	0
6	975	16.000295000692	0
6	982	16.000305000692	0
6	982	16.000305000692	0
6	987	16.000339000692	0
6	987	16.000339000692	0
6	997	17	0
6	997	17	2
6	998	17	2
6	998	17	0
6	1001	17	0
6	1001	17	0
6	1021	17.000115000692	0
6	1021	17.000115000692	0
6	1028	17.000505000692	0
6	1028	17.000505000692	0
6	1031	17.000575000692	0
6	1031	17.000575000692	0
6	1038	17.000585000692	0
6	1038	17.000585000692	0
6	1043	17.000619000692	0
6	1043	17.000619000692	0
6	1053	18	0
6	1053	18	2
6	1054	18	2
6	1054	18	0
6	1057	18	0
6	1057	18	0
6	1077	18.000115000692	0
6	1077	18.000115000692	0
6	1084	18.000745000692	0
6	1084	18.000745000692	0
6	1087	18.000815000692	0
6	1087	18.000815000692	0
6	1094	18.000825000692	0
6	1094	18.000825000692	0
6	1099	18.000859000692	0
6	1099	18.000859000692	0
6	1109	19	0
6	1109	19	2
6	1110	19	2
6	1110	19	0
6	1113	19	0
6	1113	19	0
6	1133	19.000115000692	0
6	1133	19.000115000692	0
6	1140	19.000545000692	0
6	1140	19.000545000692	0
6	1143	19.000615000692	0
6	1143	19.000615000692	0
6	1150	19.000625000692	0
6	1150	19.000625000692	0
6	1155	19.000659000692	0
6	1155	19.000659000692	0
6	1165	20	0
6	1165	20	2
6	1166	20	2
6	1166	20	0
6	1169	20	0
6	1169	20	0
6	1189	20.000115000692	0
6	1189	20.000115000692	0
6	1196	20.000305000692	0
6	1196	20.000305000692	0
6	1199	20.000375000692	0
6	1199	20.000375000692	0
6	1206	20.000385000692	0
6	1206	20.000385000692	0
6	1211	20.000419000692	0
6	1211	20.000419000692	0
6	1221	21	0
6	1221	21	2
6	1222	21	2
6	1222	21	0
6	1225	21	0
6	1225	21	0
6	1245	21.000115000692	0
6	1245	21.000115000692	0
6	1252	21.000185000692	0
6	1252	21.000185000692	0
6	1255	21.000255000692	0
6	1255	21.000255000692	0
6	1262	21.000265000692	0
6	1262	21.000265000692	0
6	1267	21.000299000692	0
6	1267	21.000299000692	0
6	1277	22	0
6	1277	22	2
6	1278	22	2
6	1278	22	0
6	1281	22	0
6	1281	22	0
6	1301	22.000115000692	0
6	1301	22.000115000692	0
6	1308	22.000665000692	0
6	1308	22.000665000692	0
6	1311	22.000735000692	0
6	1311	22.000735000692	0
6	1318	22.000745000692	0
6	1318	22.000745000692	0
6	1323	22.000779000692	0
6	1323	22.000779000692	0
6	1333	23	0
6	1333	23	2
6	1334	23	2
6	1334	23	0
6	1337	23	0
6	1337	23	0
6	1357	23.000115000692	0
6	1357	23.000115000692	0
6	1364	23.000165000692	0
6	1364	23.000165000692	0
6	1367	23.000235000692	0
6	1367	23.000235000692	0
6	1374	23.000245000692	0
6	1374	23.000245000692	0
6	1379	23.000279000692	0
6	1379	23.000279000692	0
6	1389	24	0
6	1389	24	2
6	1390	24	2
6	1390	24	0
6	1393	24	0
6	1393	24	0
6	1413	24.000115000692	0
6	1413	24.000115000692	0
6	1420	24.000365000692	0
6	1420	24.000365000692	0
6	1423	24.000435000692	0
6	1423	24.000435000692	0
6	1430	24.000445000692	0
6	1430	24.000445000692	0
6	1435	24.000479000692	0
6	1435	24.000479000692	0
6	1445	25	0
6	1445	25	2
6	1446	25	2
6	1446	25	0
6	1449	25	0
6	1449	25	0
6	1469	25.000115000692	0
6	1469	25.000115000692	0
6	1476	25.000625000692	0
6	1476	25.000625000692	0
6	1479	25.000695000692	0
6	1479	25.000695000692	0
6	1486	25.000705000692	0
6	1486	25.000705000692	0
6	1491	25.000739000692	0
6	1491	25.000739000692	0
6	1501	26	0
6	1501	26	2
6	1502	26	2
6	1502	26	0
6	1505	26	0
6	1505	26	0
6	1525	26.000115000692	0
6	1525	26.000115000692	0
6	1532	26.000765000692	0
6	1532	26.000765000692	0
6	1535	26.000835000692	0
6	1535	26.000835000692	0
6	1542	26.000845000692	0
6	1542	26.000845000692	0
6	1547	26.000879000692	0
6	1547	26.000879000692	0
6	1557	27	0
6	1557	27	2
6	1558	27	2
6	1558	27	0
6	1561	27	0
6	1561	27	0
6	1581	27.000115000692	0
6	1581	27.000115000692	0
6	1588	27.000525000692	0
6	1588	27.000525000692	0
6	1591	27.000595000692	0
6	1591	27.000595000692	0
6	1598	27.000605000692	0
6	1598	27.000605000692	0
6	1603	27.000639000692	0
6	1603	27.000639000692	0
6	1613	28	0
6	1613	28	2
6	1614	28	2
6	1614	28	0
6	1617	28	0
6	1617	28	0
6	1637	28.000115000692	0
6	1637	28.000115000692	0
6	1644	28.000725000692	0
6	1644	28.000725000692	0
6	1647	28.000795000692	0
6	1647	28.000795000692	0
6	1654	28.000805000692	0
6	1654	28.000805000692	0
6	1659	28.000839000692	0
6	1659	28.000839000692	0
6	1669	29	0
6	1669	29	2
6	1670	29	2
6	1670	29	0
6	1673	29	0
6	1673	29	0
6	1693	29.000115000692	0
6	1693	29.000115000692	0
6	1700	29.000165000692	0
6	1700	29.000165000692	0
6	1703	29.000235000692	0
6	1703	29.000235000692	0
6	1710	29.000245000692	0
6	1710	29.000245000692	0
6	1715	29.000279000692	0
6	1715	29.000279000692	0
6	1725	30	0
6	1725	30	2
6	1726	30	2
6	1726	30	0
6	1729	30	0
6	1729	30	0
6	1749	30.000115000692	0
6	1749	30.000115000692	0
6	1756	30.000245000692	0
6	1756	30.000245000692	0
6	1759	30.000315000692	0
6	1759	30.000315000692	0
6	1766	30.000325000692	0
6	1766	30.000325000692	0
6	1771	30.000359000692	0
6	1771	30.000359000692	0
6	1781	31	0
6	1781	31	2
6	1782	31	2
6	1782	31	0
6	1785	31	0
6	1785	31	0
6	1805	31.000115000692	0
6	1805	31.000115000692	0
6	1812	31.000265000692	0
6	1812	31.000265000692	0
6	1815	31.000335000692	0
6	1815	31.000335000692	0
6	1822	31.000345000692	0
6	1822	31.000345000692	0
6	1827	31.000379000692	0
6	1827	31.000379000692	0
6	1837	32	0
6	1837	32	2
6	1838	32	2
6	1838	32	0
6	1841	32	0
6	1841	32	0
6	1861	32.000115000692	0
6	1861	32.000115000692	0
6	1868	32.000325000692	0
6	1868	32.000325000692	0
6	1871	32.000395000692	0
6	1871	32.000395000692	0
6	1878	32.000405000692	0
6	1878	32.000405000692	0
6	1883	32.000439000692	0
6	1883	32.000439000692	0
6	1893	33	0
6	1893	33	2
6	1894	33	2
6	1894	33	0
6	1897	33	0
6	1897	33	0
6	1917	33.000115000692	0
6	1917	33.000115000692	0
6	1924	33.000505000692	0
6	1924	33.000505000692	0
6	1927	33.000575000692	0
6	1927	33.000575000692	0
6	1934	33.000585000692	0
6	1934	33.000585000692	0
6	1939	33.000619000692	0
6	1939	33.000619000692	0
6	1949	34	0
6	1949	34	2
6	1950	34	2
6	1950	34	0
6	1953	34	0
6	1953	34	0
6	1973	34.000115000692	0
6	1973	34.000115000692	0
6	1980	34.000245000692	0
6	1980	34.000245000692	0
6	1983	34.000315000692	0
6	1983	34.000315000692	0
6	1990	34.000325000692	0
6	1990	34.000325000692	0
6	1995	34.000359000692	0
6	1995	34.000359000692	0
6	2005	35	0
6	2005	35	2
6	2006	35	2
6	2006	35	0
6	2009	35	0
6	2009	35	0
6	2029	35.000115000692	0
6	2029	35.000115000692	0
6	2036	35.000365000692	0
6	2036	35.000365000692	0
6	2039	35.000435000692	0
6	2039	35.000435000692	0
6	2046	35.000445000692	0
6	2046	35.000445000692	0
6	2051	35.000479000692	0
6	2051	35.000479000692	0
6	2061	36	0
6	2061	36	2
6	2062	36	2
6	2062	36	0
6	2065	36	0
6	2065	36	0
6	2085	36.000115000692	0
6	2085	36.000115000692	0
6	2092	36.000785000692	0
6	2092	36.000785000692	0
6	2095	36.000855000692	0
6	2095	36.000855000692	0
6	2102	36.000865000692	0
6	2102	36.000865000692	0
6	2107	36.000899000692	0
6	2107	36.000899000692	0
6	2117	37	0
6	2117	37	2
6	2118	37	2
6	2118	37	0
6	2121	37	0
6	2121	37	0
6	2141	37.000115000692	0
6	2141	37.000115000692	0
6	2148	37.000185000692	0
6	2148	37.000185000692	0
6	2151	37.000255000692	0
6	2151	37.000255000692	0
6	2158	37.000265000692	0
6	2158	37.000265000692	0
6	2163	37.000299000692	0
6	2163	37.000299000692	0
6	2173	38	0
6	2173	38	2
6	2174	38	2
6	2174	38	0
6	2177	38	0
6	2177	38	0
6	2197	38.000115000692	0
6	2197	38.000115000692	0
6	2204	38.000305000692	0
6	2204	38.000305000692	0
6	2207	38.000375000692	0
6	2207	38.000375000692	0
6	2214	38.000385000692	0
6	2214	38.000385000692	0
6	2219	38.000419000692	0
6	2219	38.000419000692	0
6	2229	39	0
6	2229	39	2
6	2230	39	2
6	2230	39	0
6	2233	39	0
6	2233	39	0
6	2253	39.000115000692	0
6	2253	39.000115000692	0
6	2260	39.000665000692	0
6	2260	39.000665000692	0
6	2263	39.000735000692	0
6	2263	39.000735000692	0
6	2270	39.000745000692	0
6	2270	39.000745000692	0
6	2275	39.000779000692	0
6	2275	39.000779000692	0
6	2285	40	0
6	2285	40	2
6	2286	40	2
6	2286	40	0
6	2289	40	0
6	2289	40	0
6	2309	40.000115000692	0
6	2309	40.000115000692	0
6	2316	40.000285000692	0
6	2316	40.000285000692	0
6	2319	40.000355000692	0
6	2319	40.000355000692	0
6	2326	40.000365000692	0
6	2326	40.000365000692	0
6	2331	40.000399000692	0
6	2331	40.000399000692	0
6	2341	41	0
6	2341	41	2
6	2342	41	2
6	2342	41	0
6	2345	41	0
6	2345	41	0
6	2365	41.000115000692	0
6	2365	41.000115000692	0
6	2372	41.000385000692	0
6	2372	41.000385000692	0
6	2375	41.000455000692	0
6	2375	41.000455000692	0
6	2382	41.000465000692	0
6	2382	41.000465000692	0
6	2387	41.000499000692	0
6	2387	41.000499000692	0
6	2397	42	0
6	2397	42	2
6	2398	42	2
6	2398	42	0
6	2401	42	0
6	2401	42	0
6	2421	42.000115000692	0
6	2421	42.000115000692	0
6	2428	42.000525000692	0
6	2428	42.000525000692	0
6	2431	42.000595000692	0
6	2431	42.000595000692	0
6	2438	42.000605000692	0
6	2438	42.000605000692	0
6	2443	42.000639000692	0
6	2443	42.000639000692	0
6	2453	43	0
6	2453	43	2
6	2454	43	2
6	2454	43	0
6	2457	43	0
6	2457	43	0
6	2477	43.000115000692	0
6	2477	43.000115000692	0
6	2484	43.000165000692	0
6	2484	43.000165000692	0
6	2487	43.000235000692	0
6	2487	43.000235000692	0
6	2494	43.000245000692	0
6	2494	43.000245000692	0
6	2499	43.000279000692	0
6	2499	43.000279000692	0
6	2509	44	0
6	2509	44	2
6	2510	44	2
6	2510	44	0
6	2513	44	0
6	2513	44	0
6	2533	44.000115000692	0
6	2533	44.000115000692	0
6	2540	44.000225000692	0
6	2540	44.000225000692	0
6	2543	44.000295000692	0
6	2543	44.000295000692	0
6	2550	44.000305000692	0
6	2550	44.000305000692	0
6	2555	44.000339000692	0
6	2555	44.000339000692	0
6	2565	45	0
6	2565	45	2
6	2566	45	2
6	2566	45	0
6	2569	45	0
6	2569	45	0
6	2589	45.000115000692	0
6	2589	45.000115000692	0
6	2596	45.000405000692	0
6	2596	45.000405000692	0
6	2599	45.000475000692	0
6	2599	45.000475000692	0
6	2606	45.000485000692	0
6	2606	45.000485000692	0
6	2611	45.000519000692	0
6	2611	45.000519000692	0
6	2621	46	0
6	2621	46	2
6	2622	46	2
6	2622	46	0
6	2625	46	0
6	2625	46	0
6	2645	46.000115000692	0
6	2645	46.000115000692	0
6	2652	46.000365000692	0
6	2652	46.000365000692	0
6	2655	46.000435000692	0
6	2655	46.000435000692	0
6	2662	46.000445000692	0
6	2662	46.000445000692	0
6	2667	46.000479000692	0
6	2667	46.000479000692	0
6	2677	47	0
6	2677	47	2
6	2678	47	2
6	2678	47	0
6	2681	47	0
6	2681	47	0
6	2701	47.000115000692	0
6	2701	47.000115000692	0
6	2708	47.000385000692	0
6	2708	47.000385000692	0
6	2711	47.000455000692	0
6	2711	47.000455000692	0
6	2718	47.000465000692	0
6	2718	47.000465000692	0
6	2723	47.000499000692	0
6	2723	47.000499000692	0
6	2733	48	0
6	2733	48	2
6	2734	48	2
6	2734	48	0
6	2737	48	0
6	2737	48	0
6	2757	48.000115000692	0
6	2757	48.000115000692	0
6	2764	48.000285000692	0
6	2764	48.000285000692	0
6	2767	48.000355000692	0
6	2767	48.000355000692	0
6	2774	48.000365000692	0
6	2774	48.000365000692	0
6	2779	48.000399000692	0
6	2779	48.000399000692	0
6	2789	49	0
6	2789	49	2
6	2790	49	2
6	2790	49	0
6	2793	49	0
6	2793	49	0
6	2813	49.000115000692	0
6	2813	49.000115000692	0
6	2820	49.000465000692	0
6	2820	49.000465000692	0
6	2823	49.000535000692	0
6	2823	49.000535000692	0
6	2830	49.000545000692	0
6	2830	49.000545000692	0
6	2835	49.000579000692	0
6	2835	49.000579000692	0
6	2845	50	0
6	2845	50	2
6	2846	50	2
6	2846	50	0
6	2849	50	0
6	2849	50	0
6	2869	50.000115000692	0
6	2869	50.000115000692	0
6	2876	50.000565000692	0
6	2876	50.000565000692	0
6	2879	50.000635000692	0
6	2879	50.000635000692	0
6	2886	50.000645000692	0
6	2886	50.000645000692	0
6	2891	50.000679000692	0
6	2891	50.000679000692	0
6	2901	51	0
6	2901	51	2
6	2902	51	2
6	2902	51	0
6	2905	51	0
6	2905	51	0
6	2925	51.000115000692	0
6	2925	51.000115000692	0
6	2932	51.000405000692	0
6	2932	51.000405000692	0
6	2935	51.000475000692	0
6	2935	51.000475000692	0
6	2942	51.000485000692	0
6	2942	51.000485000692	0
6	2947	51.000519000692	0
6	2947	51.000519000692	0
6	2957	52	0
6	2957	52	2
6	2958	52	2
6	2958	52	0
6	2961	52	0
6	2961	52	0
6	2981	52.000115000692	0
6	2981	52.000115000692	0
6	2988	52.000565000692	0
6	2988	52.000565000692	0
6	2991	52.000635000692	0
6	2991	52.000635000692	0
6	2998	52.000645000692	0
6	2998	52.000645000692	0
6	3003	52.000679000692	0
6	3003	52.000679000692	0
6	3013	53	0
6	3013	53	2
6	3014	53	2
6	3014	53	0
6	3017	53	0
6	3017	53	0
6	3037	53.000115000692	0
6	3037	53.000115000692	0
6	3044	53.000445000692	0
6	3044	53.000445000692	0
6	3047	53.000515000692	0
6	3047	53.000515000692	0
6	3054	53.000525000692	0
6	3054	53.000525000692	0
6	3059	53.000559000692	0
6	3059	53.000559000692	0
6	3069	54	0
6	3069	54	2
6	3070	54	2
6	3070	54	0
6	3073	54	0
6	3073	54	0
6	3093	54.000115000692	0
6	3093	54.000115000692	0
6	3100	54.000565000692	0
6	3100	54.000565000692	0
6	3103	54.000635000692	0
6	3103	54.000635000692	0
6	3110	54.000645000692	0
6	3110	54.000645000692	0
6	3115	54.000679000692	0
6	3115	54.000679000692	0
6	3125	55	0
6	3125	55	2
6	3126	55	2
6	3126	55	0
6	3129	55	0
6	3129	55	0
6	3149	55.000115000692	0
6	3149	55.000115000692	0
6	3156	55.000685000692	0
6	3156	55.000685000692	0
6	3159	55.000755000692	0
6	3159	55.000755000692	0
6	3166	55.000765000692	0
6	3166	55.000765000692	0
6	3171	55.000799000692	0
6	3171	55.000799000692	0
6	3181	56	0
6	3181	56	2
6	3182	56	2
6	3182	56	0
6	3185	56	0
6	3185	56	0
6	3205	56.000115000692	0
6	3205	56.000115000692	0
6	3212	56.000465000692	0
6	3212	56.000465000692	0
6	3215	56.000535000692	0
6	3215	56.000535000692	0
6	3222	56.000545000692	0
6	3222	56.000545000692	0
6	3227	56.000579000692	0
6	3227	56.000579000692	0
6	3237	57	0
6	3237	57	2
6	3238	57	2
6	3238	57	0
6	3241	57	0
6	3241	57	0
6	3261	57.000115000692	0
6	3261	57.000115000692	0
6	3268	57.000585000692	0
6	3268	57.000585000692	0
6	3271	57.000655000692	0
6	3271	57.000655000692	0
6	3278	57.000665000692	0
6	3278	57.000665000692	0
6	3283	57.000699000692	0
6	3283	57.000699000692	0
6	3293	58	0
6	3293	58	2
6	3294	58	2
6	3294	58	0
6	3297	58	0
6	3297	58	0
6	3317	58.000115000692	0
6	3317	58.000115000692	0
6	3324	58.000485000692	0
6	3324	58.000485000692	0
6	3327	58.000555000692	0
6	3327	58.000555000692	0
6	3334	58.000565000692	0
6	3334	58.000565000692	0
6	3339	58.000599000692	0
6	3339	58.000599000692	0
6	3349	59	0
6	3349	59	2
6	3350	59	2
6	3350	59	0
6	3353	59	0
6	3353	59	0
7	0	0	0
7	0	0	0
7	9	0.00011	0
7	9	0.00011	0
7	13	0.00016	0
7	13	0.00016	0
7	25	0.000351000692	0
7	25	0.000351000692	0
7	28	0.000401000692	0
7	28	0.000401000692	0
7	35	0.000411000692	0
7	35	0.000411000692	0
7	40	0.000445000692	0
7	40	0.000445000692	0
7	46	0.000675000692	0
7	46	0.000675000692	0
7	66	0.000790001384	0
7	66	0.000790001384	0
7	73	0.001220001384	0
7	73	0.001220001384	0
7	76	0.001290001384	0
7	76	0.001290001384	0
7	83	0.001300001384	0
7	83	0.001300001384	0
7	88	0.001334001384	0
7	88	0.001334001384	0
7	105	1	0
7	105	1	0
7	125	1.000115000692	0
7	125	1.000115000692	0
7	132	1.000525000692	0
7	132	1.000525000692	0
7	135	1.000595000692	0
7	135	1.000595000692	0
7	142	1.000605000692	0
7	142	1.000605000692	0
7	147	1.000639000692	0
7	147	1.000639000692	0
7	161	2	0
7	161	2	0
7	181	2.000115000692	0
7	181	2.000115000692	0
7	188	2.000625000692	0
7	188	2.000625000692	0
7	191	2.000695000692	0
7	191	2.000695000692	0
7	198	2.000705000692	0
7	198	2.000705000692	0
7	203	2.000739000692	0
7	203	2.000739000692	0
7	217	3	0
7	217	3	0
7	237	3.000115000692	0
7	237	3.000115000692	0
7	244	3.000645000692	0
7	244	3.000645000692	0
7	247	3.000715000692	0
7	247	3.000715000692	0
7	254	3.000725000692	0
7	254	3.000725000692	0
7	259	3.000759000692	0
7	259	3.000759000692	0
7	273	4	0
7	273	4	0
7	293	4.000115000692	0
7	293	4.000115000692	0
7	300	4.000405000692	0
7	300	4.000405000692	0
7	303	4.000475000692	0
7	303	4.000475000692	0
7	310	4.000485000692	0
7	310	4.000485000692	0
7	315	4.000519000692	0
7	315	4.000519000692	0
7	329	5	0
7	329	5	0
7	349	5.000115000692	0
7	349	5.000115000692	0
7	356	5.000185000692	0
7	356	5.000185000692	0
7	359	5.000255000692	0
7	359	5.000255000692	0
7	366	5.000265000692	0
7	366	5.000265000692	0
7	371	5.000299000692	0
7	371	5.000299000692	0
7	385	6	0
7	385	6	0
7	405	6.000115000692	0
7	405	6.000115000692	0
7	412	6.000305000692	0
7	412	6.000305000692	0
7	415	6.000375000692	0
7	415	6.000375000692	0
7	422	6.000385000692	0
7	422	6.000385000692	0
7	427	6.000419000692	0
7	427	6.000419000692	0
7	441	7	0
7	441	7	0
7	461	7.000115000692	0
7	461	7.000115000692	0
7	468	7.000445000692	0
7	468	7.000445000692	0
7	471	7.000515000692	0
7	471	7.000515000692	0
7	478	7.000525000692	0
7	478	7.000525000692	0
7	483	7.000559000692	0
7	483	7.000559000692	0
7	497	8	0
7	497	8	0
7	517	8.000115000692	0
7	517	8.000115000692	0
7	524	8.000505000692	0
7	524	8.000505000692	0
7	527	8.000575000692	0
7	527	8.000575000692	0
7	534	8.000585000692	0
7	534	8.000585000692	0
7	539	8.000619000692	0
7	539	8.000619000692	0
7	553	9	0
7	553	9	0
7	573	9.000115000692	0
7	573	9.000115000692	0
7	580	9.000665000692	0
7	580	9.000665000692	0
7	583	9.000735000692	0
7	583	9.000735000692	0
7	590	9.000745000692	0
7	590	9.000745000692	0
7	595	9.000779000692	0
7	595	9.000779000692	0
7	609	10	0
7	609	10	0
7	629	10.000115000692	0
7	629	10.000115000692	0
7	636	10.000325000692	0
7	636	10.000325000692	0
7	639	10.000395000692	0
7	639	10.000395000692	0
7	646	10.000405000692	0
7	646	10.000405000692	0
7	651	10.000439000692	0
7	651	10.000439000692	0
7	665	11	0
7	665	11	0
7	685	11.000115000692	0
7	685	11.000115000692	0
7	692	11.000565000692	0
7	692	11.000565000692	0
7	695	11.000635000692	0
7	695	11.000635000692	0
7	702	11.000645000692	0
7	702	11.000645000692	0
7	707	11.000679000692	0
7	707	11.000679000692	0
7	721	12	0
7	721	12	0
7	741	12.000115000692	0
7	741	12.000115000692	0
7	748	12.000485000692	0
7	748	12.000485000692	0
7	751	12.000555000692	0
7	751	12.000555000692	0
7	758	12.000565000692	0
7	758	12.000565000692	0
7	763	12.000599000692	0
7	763	12.000599000692	0
7	777	13	0
7	777	13	0
7	797	13.000115000692	0
7	797	13.000115000692	0
7	804	13.000265000692	0
7	804	13.000265000692	0
7	807	13.000335000692	0
7	807	13.000335000692	0
7	814	13.000345000692	0
7	814	13.000345000692	0
7	819	13.000379000692	0
7	819	13.000379000692	0
7	833	14	0
7	833	14	0
7	853	14.000115000692	0
7	853	14.000115000692	0
7	860	14.000465000692	0
7	860	14.000465000692	0
7	863	14.000535000692	0
7	863	14.000535000692	0
7	870	14.000545000692	0
7	870	14.000545000692	0
7	875	14.000579000692	0
7	875	14.000579000692	0
7	889	15	0
7	889	15	0
7	909	15.000115000692	0
7	909	15.000115000692	0
7	916	15.000165000692	0
7	916	15.000165000692	0
7	919	15.000235000692	0
7	919	15.000235000692	0
7	926	15.000245000692	0
7	926	15.000245000692	0
7	931	15.000279000692	0
7	931	15.000279000692	0
7	945	16	0
7	945	16	0
7	965	16.000115000692	0
7	965	16.000115000692	0
7	972	16.000225000692	0
7	972	16.000225000692	0
7	975	16.000295000692	0
7	975	16.000295000692	0
7	982	16.000305000692	0
7	982	16.000305000692	0
7	987	16.000339000692	0
7	987	16.000339000692	0
7	1001	17	0
7	1001	17	0
7	1021	17.000115000692	0
7	1021	17.000115000692	0
7	1028	17.000505000692	0
7	1028	17.000505000692	0
7	1031	17.000575000692	0
7	1031	17.000575000692	0
7	1038	17.000585000692	0
7	1038	17.000585000692	0
7	1043	17.000619000692	0
7	1043	17.000619000692	0
7	1057	18	0
7	1057	18	0
7	1077	18.000115000692	0
7	1077	18.000115000692	0
7	1084	18.000745000692	0
7	1084	18.000745000692	0
7	1087	18.000815000692	0
7	1087	18.000815000692	0
7	1094	18.000825000692	0
7	1094	18.000825000692	0
7	1099	18.000859000692	0
7	1099	18.000859000692	0
7	1113	19	0
7	1113	19	0
7	1133	19.000115000692	0
7	1133	19.000115000692	0
7	1140	19.000545000692	0
7	1140	19.000545000692	0
7	1143	19.000615000692	0
7	1143	19.000615000692	0
7	1150	19.000625000692	0
7	1150	19.000625000692	0
7	1155	19.000659000692	0
7	1155	19.000659000692	0
7	1169	20	0
7	1169	20	0
7	1189	20.000115000692	0
7	1189	20.000115000692	0
7	1196	20.000305000692	0
7	1196	20.000305000692	0
7	1199	20.000375000692	0
7	1199	20.000375000692	0
7	1206	20.000385000692	0
7	1206	20.000385000692	0
7	1211	20.000419000692	0
7	1211	20.000419000692	0
7	1225	21	0
7	1225	21	0
7	1245	21.000115000692	0
7	1245	21.000115000692	0
7	1252	21.000185000692	0
7	1252	21.000185000692	0
7	1255	21.000255000692	0
7	1255	21.000255000692	0
7	1262	21.000265000692	0
7	1262	21.000265000692	0
7	1267	21.000299000692	0
7	1267	21.000299000692	0
7	1281	22	0
7	1281	22	0
7	1301	22.000115000692	0
7	1301	22.000115000692	0
7	1308	22.000665000692	0
7	1308	22.000665000692	0
7	1311	22.000735000692	0
7	1311	22.000735000692	0
7	1318	22.000745000692	0
7	1318	22.000745000692	0
7	1323	22.000779000692	0
7	1323	22.000779000692	0
7	1337	23	0
7	1337	23	0
7	1357	23.000115000692	0
7	1357	23.000115000692	0
7	1364	23.000165000692	0
7	1364	23.000165000692	0
7	1367	23.000235000692	0
7	1367	23.000235000692	0
7	1374	23.000245000692	0
7	1374	23.000245000692	0
7	1379	23.000279000692	0
7	1379	23.000279000692	0
7	1393	24	0
7	1393	24	0
7	1413	24.000115000692	0
7	1413	24.000115000692	0
7	1420	24.000365000692	0
7	1420	24.000365000692	0
7	1423	24.000435000692	0
7	1423	24.000435000692	0
7	1430	24.000445000692	0
7	1430	24.000445000692	0
7	1435	24.000479000692	0
7	1435	24.000479000692	0
7	1449	25	0
7	1449	25	0
7	1469	25.000115000692	0
7	1469	25.000115000692	0
7	1476	25.000625000692	0
7	1476	25.000625000692	0
7	1479	25.000695000692	0
7	1479	25.000695000692	0
7	1486	25.000705000692	0
7	1486	25.000705000692	0
7	1491	25.000739000692	0
7	1491	25.000739000692	0
7	1505	26	0
7	1505	26	0
7	1525	26.000115000692	0
7	1525	26.000115000692	0
7	1532	26.000765000692	0
7	1532	26.000765000692	0
7	1535	26.000835000692	0
7	1535	26.000835000692	0
7	1542	26.000845000692	0
7	1542	26.000845000692	0
7	1547	26.000879000692	0
7	1547	26.000879000692	0
7	1561	27	0
7	1561	27	0
7	1581	27.000115000692	0
7	1581	27.000115000692	0
7	1588	27.000525000692	0
7	1588	27.000525000692	0
7	1591	27.000595000692	0
7	1591	27.000595000692	0
7	1598	27.000605000692	0
7	1598	27.000605000692	0
7	1603	27.000639000692	0
7	1603	27.000639000692	0
7	1617	28	0
7	1617	28	0
7	1637	28.000115000692	0
7	1637	28.000115000692	0
7	1644	28.000725000692	0
7	1644	28.000725000692	0
7	1647	28.000795000692	0
7	1647	28.000795000692	0
7	1654	28.000805000692	0
7	1654	28.000805000692	0
7	1659	28.000839000692	0
7	1659	28.000839000692	0
7	1673	29	0
7	1673	29	0
7	1693	29.000115000692	0
7	1693	29.000115000692	0
7	1700	29.000165000692	0
7	1700	29.000165000692	0
7	1703	29.000235000692	0
7	1703	29.000235000692	0
7	1710	29.000245000692	0
7	1710	29.000245000692	0
7	1715	29.000279000692	0
7	1715	29.000279000692	0
7	1729	30	0
7	1729	30	0
7	1749	30.000115000692	0
7	1749	30.000115000692	0
7	1756	30.000245000692	0
7	1756	30.000245000692	0
7	1759	30.000315000692	0
7	1759	30.000315000692	0
7	1766	30.000325000692	0
7	1766	30.000325000692	0
7	1771	30.000359000692	0
7	1771	30.000359000692	0
7	1785	31	0
7	1785	31	0
7	1805	31.000115000692	0
7	1805	31.000115000692	0
7	1812	31.000265000692	0
7	1812	31.000265000692	0
7	1815	31.000335000692	0
7	1815	31.000335000692	0
7	1822	31.000345000692	0
7	1822	31.000345000692	0
7	1827	31.000379000692	0
7	1827	31.000379000692	0
7	1841	32	0
7	1841	32	0
7	1861	32.000115000692	0
7	1861	32.000115000692	0
7	1868	32.000325000692	0
7	1868	32.000325000692	0
7	1871	32.000395000692	0
7	1871	32.000395000692	0
7	1878	32.000405000692	0
7	1878	32.000405000692	0
7	1883	32.000439000692	0
7	1883	32.000439000692	0
7	1897	33	0
7	1897	33	0
7	1917	33.000115000692	0
7	1917	33.000115000692	0
7	1924	33.000505000692	0
7	1924	33.000505000692	0
7	1927	33.000575000692	0
7	1927	33.000575000692	0
7	1934	33.000585000692	0
7	1934	33.000585000692	0
7	1939	33.000619000692	0
7	1939	33.000619000692	0
7	1953	34	0
7	1953	34	0
7	1973	34.000115000692	0
7	1973	34.000115000692	0
7	1980	34.000245000692	0
7	1980	34.000245000692	0
7	1983	34.000315000692	0
7	1983	34.000315000692	0
7	1990	34.000325000692	0
7	1990	34.000325000692	0
7	1995	34.000359000692	0
7	1995	34.000359000692	0
7	2009	35	0
7	2009	35	0
7	2029	35.000115000692	0
7	2029	35.000115000692	0
7	2036	35.000365000692	0
7	2036	35.000365000692	0
7	2039	35.000435000692	0
7	2039	35.000435000692	0
7	2046	35.000445000692	0
7	2046	35.000445000692	0
7	2051	35.000479000692	0
7	2051	35.000479000692	0
7	2065	36	0
7	2065	36	0
7	2085	36.000115000692	0
7	2085	36.000115000692	0
7	2092	36.000785000692	0
7	2092	36.000785000692	0
7	2095	36.000855000692	0
7	2095	36.000855000692	0
7	2102	36.000865000692	0
7	2102	36.000865000692	0
7	2107	36.000899000692	0
7	2107	36.000899000692	0
7	2121	37	0
7	2121	37	0
7	2141	37.000115000692	0
7	2141	37.000115000692	0
7	2148	37.000185000692	0
7	2148	37.000185000692	0
7	2151	37.000255000692	0
7	2151	37.000255000692	0
7	2158	37.000265000692	0
7	2158	37.000265000692	0
7	2163	37.000299000692	0
7	2163	37.000299000692	0
7	2177	38	0
7	2177	38	0
7	2197	38.000115000692	0
7	2197	38.000115000692	0
7	2204	38.000305000692	0
7	2204	38.000305000692	0
7	2207	38.000375000692	0
7	2207	38.000375000692	0
7	2214	38.000385000692	0
7	2214	38.000385000692	0
7	2219	38.000419000692	0
7	2219	38.000419000692	0
7	2233	39	0
7	2233	39	0
7	2253	39.000115000692	0
7	2253	39.000115000692	0
7	2260	39.000665000692	0
7	2260	39.000665000692	0
7	2263	39.000735000692	0
7	2263	39.000735000692	0
7	2270	39.000745000692	0
7	2270	39.000745000692	0
7	2275	39.000779000692	0
7	2275	39.000779000692	0
7	2289	40	0
7	2289	40	0
7	2309	40.000115000692	0
7	2309	40.000115000692	0
7	2316	40.000285000692	0
7	2316	40.000285000692	0
7	2319	40.000355000692	0
7	2319	40.000355000692	0
7	2326	40.000365000692	0
7	2326	40.000365000692	0
7	2331	40.000399000692	0
7	2331	40.000399000692	0
7	2345	41	0
7	2345	41	0
7	2365	41.000115000692	0
7	2365	41.000115000692	0
7	2372	41.000385000692	0
7	2372	41.000385000692	0
7	2375	41.000455000692	0
7	2375	41.000455000692	0
7	2382	41.000465000692	0
7	2382	41.000465000692	0
7	2387	41.000499000692	0
7	2387	41.000499000692	0
7	2401	42	0
7	2401	42	0
7	2421	42.000115000692	0
7	2421	42.000115000692	0
7	2428	42.000525000692	0
7	2428	42.000525000692	0
7	2431	42.000595000692	0
7	2431	42.000595000692	0
7	2438	42.000605000692	0
7	2438	42.000605000692	0
7	2443	42.000639000692	0
7	2443	42.000639000692	0
7	2457	43	0
7	2457	43	0
7	2477	43.000115000692	0
7	2477	43.000115000692	0
7	2484	43.000165000692	0
7	2484	43.000165000692	0
7	2487	43.000235000692	0
7	2487	43.000235000692	0
7	2494	43.000245000692	0
7	2494	43.000245000692	0
7	2499	43.000279000692	0
7	2499	43.000279000692	0
7	2513	44	0
7	2513	44	0
7	2533	44.000115000692	0
7	2533	44.000115000692	0
7	2540	44.000225000692	0
7	2540	44.000225000692	0
7	2543	44.000295000692	0
7	2543	44.000295000692	0
7	2550	44.000305000692	0
7	2550	44.000305000692	0
7	2555	44.000339000692	0
7	2555	44.000339000692	0
7	2569	45	0
7	2569	45	0
7	2589	45.000115000692	0
7	2589	45.000115000692	0
7	2596	45.000405000692	0
7	2596	45.000405000692	0
7	2599	45.000475000692	0
7	2599	45.000475000692	0
7	2606	45.000485000692	0
7	2606	45.000485000692	0
7	2611	45.000519000692	0
7	2611	45.000519000692	0
7	2625	46	0
7	2625	46	0
7	2645	46.000115000692	0
7	2645	46.000115000692	0
7	2652	46.000365000692	0
7	2652	46.000365000692	0
7	2655	46.000435000692	0
7	2655	46.000435000692	0
7	2662	46.000445000692	0
7	2662	46.000445000692	0
7	2667	46.000479000692	0
7	2667	46.000479000692	0
7	2681	47	0
7	2681	47	0
7	2701	47.000115000692	0
7	2701	47.000115000692	0
7	2708	47.000385000692	0
7	2708	47.000385000692	0
7	2711	47.000455000692	0
7	2711	47.000455000692	0
7	2718	47.000465000692	0
7	2718	47.000465000692	0
7	2723	47.000499000692	0
7	2723	47.000499000692	0
7	2737	48	0
7	2737	48	0
7	2757	48.000115000692	0
7	2757	48.000115000692	0
7	2764	48.000285000692	0
7	2764	48.000285000692	0
7	2767	48.000355000692	0
7	2767	48.000355000692	0
7	2774	48.000365000692	0
7	2774	48.000365000692	0
7	2779	48.000399000692	0
7	2779	48.000399000692	0
7	2793	49	0
7	2793	49	0
7	2813	49.000115000692	0
7	2813	49.000115000692	0
7	2820	49.000465000692	0
7	2820	49.000465000692	0
7	2823	49.000535000692	0
7	2823	49.000535000692	0
7	2830	49.000545000692	0
7	2830	49.000545000692	0
7	2835	49.000579000692	0
7	2835	49.000579000692	0
7	2849	50	0
7	2849	50	0
7	2869	50.000115000692	0
7	2869	50.000115000692	0
7	2876	50.000565000692	0
7	2876	50.000565000692	0
7	2879	50.000635000692	0
7	2879	50.000635000692	0
7	2886	50.000645000692	0
7	2886	50.000645000692	0
7	2891	50.000679000692	0
7	2891	50.000679000692	0
7	2905	51	0
7	2905	51	0
7	2925	51.000115000692	0
7	2925	51.000115000692	0
7	2932	51.000405000692	0
7	2932	51.000405000692	0
7	2935	51.000475000692	0
7	2935	51.000475000692	0
7	2942	51.000485000692	0
7	2942	51.000485000692	0
7	2947	51.000519000692	0
7	2947	51.000519000692	0
7	2961	52	0
7	2961	52	0
7	2981	52.000115000692	0
7	2981	52.000115000692	0
7	2988	52.000565000692	0
7	2988	52.000565000692	0
7	2991	52.000635000692	0
7	2991	52.000635000692	0
7	2998	52.000645000692	0
7	2998	52.000645000692	0
7	3003	52.000679000692	0
7	3003	52.000679000692	0
7	3017	53	0
7	3017	53	0
7	3037	53.000115000692	0
7	3037	53.000115000692	0
7	3044	53.000445000692	0
7	3044	53.000445000692	0
7	3047	53.000515000692	0
7	3047	53.000515000692	0
7	3054	53.000525000692	0
7	3054	53.000525000692	0
7	3059	53.000559000692	0
7	3059	53.000559000692	0
7	3073	54	0
7	3073	54	0
7	3093	54.000115000692	0
7	3093	54.000115000692	0
7	3100	54.000565000692	0
7	3100	54.000565000692	0
7	3103	54.000635000692	0
7	3103	54.000635000692	0
7	3110	54.000645000692	0
7	3110	54.000645000692	0
7	3115	54.000679000692	0
7	3115	54.000679000692	0
7	3129	55	0
7	3129	55	0
7	3149	55.000115000692	0
7	3149	55.000115000692	0
7	3156	55.000685000692	0
7	3156	55.000685000692	0
7	3159	55.000755000692	0
7	3159	55.000755000692	0
7	3166	55.000765000692	0
7	3166	55.000765000692	0
7	3171	55.000799000692	0
7	3171	55.000799000692	0
7	3185	56	0
7	3185	56	0
7	3205	56.000115000692	0
7	3205	56.000115000692	0
7	3212	56.000465000692	0
7	3212	56.000465000692	0
7	3215	56.000535000692	0
7	3215	56.000535000692	0
7	3222	56.000545000692	0
7	3222	56.000545000692	0
7	3227	56.000579000692	0
7	3227	56.000579000692	0
7	3241	57	0
7	3241	57	0
7	3261	57.000115000692	0
7	3261	57.000115000692	0
7	3268	57.000585000692	0
7	3268	57.000585000692	0
7	3271	57.000655000692	0
7	3271	57.000655000692	0
7	3278	57.000665000692	0
7	3278	57.000665000692	0
7	3283	57.000699000692	0
7	3283	57.000699000692	0
7	3297	58	0
7	3297	58	0
7	3317	58.000115000692	0
7	3317	58.000115000692	0
7	3324	58.000485000692	0
7	3324	58.000485000692	0
7	3327	58.000555000692	0
7	3327	58.000555000692	0
7	3334	58.000565000692	0
7	3334	58.000565000692	0
7	3339	58.000599000692	0
7	3339	58.000599000692	0
7	3353	59	0
7	3353	59	0
8	0	0	0
8	0	0	0
8	9	0.00011	0
8	9	0.00011	0
8	13	0.00016	0
8	13	0.00016	0
8	25	0.000351000692	0
8	25	0.000351000692	0
8	28	0.000401000692	0
8	28	0.000401000692	0
8	35	0.000411000692	0
8	35	0.000411000692	0
8	40	0.000445000692	0
8	40	0.000445000692	0
8	46	0.000675000692	0
8	46	0.000675000692	0
8	66	0.000790001384	0
8	66	0.000790001384	0
8	73	0.001220001384	0
8	73	0.001220001384	0
8	76	0.001290001384	0
8	76	0.001290001384	0
8	83	0.001300001384	0
8	83	0.001300001384	0
8	88	0.001334001384	0
8	88	0.001334001384	0
8	105	1	0
8	105	1	0
8	125	1.000115000692	0
8	125	1.000115000692	0
8	132	1.000525000692	0
8	132	1.000525000692	0
8	135	1.000595000692	0
8	135	1.000595000692	0
8	142	1.000605000692	0
8	142	1.000605000692	0
8	147	1.000639000692	0
8	147	1.000639000692	0
8	161	2	0
8	161	2	0
8	181	2.000115000692	0
8	181	2.000115000692	0
8	188	2.000625000692	0
8	188	2.000625000692	0
8	191	2.000695000692	0
8	191	2.000695000692	0
8	198	2.000705000692	0
8	198	2.000705000692	0
8	203	2.000739000692	0
8	203	2.000739000692	0
8	217	3	0
8	217	3	0
8	237	3.000115000692	0
8	237	3.000115000692	0
8	244	3.000645000692	0
8	244	3.000645000692	0
8	247	3.000715000692	0
8	247	3.000715000692	0
8	254	3.000725000692	0
8	254	3.000725000692	0
8	259	3.000759000692	0
8	259	3.000759000692	0
8	273	4	0
8	273	4	0
8	293	4.000115000692	0
8	293	4.000115000692	0
8	300	4.000405000692	0
8	300	4.000405000692	0
8	303	4.000475000692	0
8	303	4.000475000692	0
8	310	4.000485000692	0
8	310	4.000485000692	0
8	315	4.000519000692	0
8	315	4.000519000692	0
8	329	5	0
8	329	5	0
8	349	5.000115000692	0
8	349	5.000115000692	0
8	356	5.000185000692	0
8	356	5.000185000692	0
8	359	5.000255000692	0
8	359	5.000255000692	0
8	366	5.000265000692	0
8	366	5.000265000692	0
8	371	5.000299000692	0
8	371	5.000299000692	0
8	385	6	0
8	385	6	0
8	405	6.000115000692	0
8	405	6.000115000692	0
8	412	6.000305000692	0
8	412	6.000305000692	0
8	415	6.000375000692	0
8	415	6.000375000692	0
8	422	6.000385000692	0
8	422	6.000385000692	0
8	427	6.000419000692	0
8	427	6.000419000692	0
8	441	7	0
8	441	7	0
8	461	7.000115000692	0
8	461	7.000115000692	0
8	468	7.000445000692	0
8	468	7.000445000692	0
8	471	7.000515000692	0
8	471	7.000515000692	0
8	478	7.000525000692	0
8	478	7.000525000692	0
8	483	7.000559000692	0
8	483	7.000559000692	0
8	497	8	0
8	497	8	0
8	517	8.000115000692	0
8	517	8.000115000692	0
8	524	8.000505000692	0
8	524	8.000505000692	0
8	527	8.000575000692	0
8	527	8.000575000692	0
8	534	8.000585000692	0
8	534	8.000585000692	0
8	539	8.000619000692	0
8	539	8.000619000692	0
8	553	9	0
8	553	9	0
8	573	9.000115000692	0
8	573	9.000115000692	0
8	580	9.000665000692	0
8	580	9.000665000692	0
8	583	9.000735000692	0
8	583	9.000735000692	0
8	590	9.000745000692	0
8	590	9.000745000692	0
8	595	9.000779000692	0
8	595	9.000779000692	0
8	609	10	0
8	609	10	0
8	629	10.000115000692	0
8	629	10.000115000692	0
8	636	10.000325000692	0
8	636	10.000325000692	0
8	639	10.000395000692	0
8	639	10.000395000692	0
8	646	10.000405000692	0
8	646	10.000405000692	0
8	651	10.000439000692	0
8	651	10.000439000692	0
8	665	11	0
8	665	11	0
8	685	11.000115000692	0
8	685	11.000115000692	0
8	692	11.000565000692	0
8	692	11.000565000692	0
8	695	11.000635000692	0
8	695	11.000635000692	0
8	702	11.000645000692	0
8	702	11.000645000692	0
8	707	11.000679000692	0
8	707	11.000679000692	0
8	721	12	0
8	721	12	0
8	741	12.000115000692	0
8	741	12.000115000692	0
8	748	12.000485000692	0
8	748	12.000485000692	0
8	751	12.000555000692	0
8	751	12.000555000692	0
8	758	12.000565000692	0
8	758	12.000565000692	0
8	763	12.000599000692	0
8	763	12.000599000692	0
8	777	13	0
8	777	13	0
8	797	13.000115000692	0
8	797	13.000115000692	0
8	804	13.000265000692	0
8	804	13.000265000692	0
8	807	13.000335000692	0
8	807	13.000335000692	0
8	814	13.000345000692	0
8	814	13.000345000692	0
8	819	13.000379000692	0
8	819	13.000379000692	0
8	833	14	0
8	833	14	0
8	853	14.000115000692	0
8	853	14.000115000692	0
8	860	14.000465000692	0
8	860	14.000465000692	0
8	863	14.000535000692	0
8	863	14.000535000692	0
8	870	14.000545000692	0
8	870	14.000545000692	0
8	875	14.000579000692	0
8	875	14.000579000692	0
8	889	15	0
8	889	15	0
8	909	15.000115000692	0
8	909	15.000115000692	0
8	916	15.000165000692	0
8	916	15.000165000692	0
8	919	15.000235000692	0
8	919	15.000235000692	0
8	926	15.000245000692	0
8	926	15.000245000692	0
8	931	15.000279000692	0
8	931	15.000279000692	0
8	945	16	0
8	945	16	0
8	965	16.000115000692	0
8	965	16.000115000692	0
8	972	16.000225000692	0
8	972	16.000225000692	0
8	975	16.000295000692	0
8	975	16.000295000692	0
8	982	16.000305000692	0
8	982	16.000305000692	0
8	987	16.000339000692	0
8	987	16.000339000692	0
8	1001	17	0
8	1001	17	0
8	1021	17.000115000692	0
8	1021	17.000115000692	0
8	1028	17.000505000692	0
[...]
27	243	3.000644500346	2
27	245	3.000714500346	1
27	246	3.000714500346	0
27	287	4.000080500346	1
27	288	4.000080500346	2
27	291	4.000114500346	1
27	292	4.000114500346	0
27	298	4.000404500346	1
27	299	4.000404500346	2
27	301	4.000474500346	1
27	302	4.000474500346	0
27	343	5.000080500346	1
27	344	5.000080500346	2
27	347	5.000114500346	1
27	348	5.000114500346	0
27	354	5.000184500346	1
27	355	5.000184500346	2
27	357	5.000254500346	1
27	358	5.000254500346	0
27	399	6.000080500346	1
27	400	6.000080500346	2
27	403	6.000114500346	1
27	404	6.000114500346	0
27	410	6.000304500346	1
27	411	6.000304500346	2
27	413	6.000374500346	1
27	414	6.000374500346	0
27	455	7.000080500346	1
27	456	7.000080500346	2
27	459	7.000114500346	1
27	460	7.000114500346	0
27	466	7.000444500346	1
27	467	7.000444500346	2
27	469	7.000514500346	1
27	470	7.000514500346	0
27	511	8.000080500346	1
27	512	8.000080500346	2
27	515	8.000114500346	1
27	516	8.000114500346	0
27	522	8.000504500346	1
27	523	8.000504500346	2
27	525	8.000574500346	1
27	526	8.000574500346	0
27	567	9.000080500346	1
27	568	9.000080500346	2
27	571	9.000114500346	1
27	572	9.000114500346	0
27	578	9.000664500346	1
27	579	9.000664500346	2
27	581	9.000734500346	1
27	582	9.000734500346	0
27	623	10.000080500346	1
27	624	10.000080500346	2
27	627	10.000114500346	1
27	628	10.000114500346	0
27	634	10.000324500346	1
27	635	10.000324500346	2
27	637	10.000394500346	1
27	638	10.000394500346	0
27	679	11.000080500346	1
27	680	11.000080500346	2
27	683	11.000114500346	1
27	684	11.000114500346	0
27	690	11.000564500346	1
27	691	11.000564500346	2
27	693	11.000634500346	1
27	694	11.000634500346	0
27	735	12.000080500346	1
27	736	12.000080500346	2
27	739	12.000114500346	1
27	740	12.000114500346	0
27	746	12.000484500346	1
27	747	12.000484500346	2
27	749	12.000554500346	1
27	750	12.000554500346	0
27	791	13.000080500346	1
27	792	13.000080500346	2
27	795	13.000114500346	1
27	796	13.000114500346	0
27	802	13.000264500346	1
27	803	13.000264500346	2
27	805	13.000334500346	1
27	806	13.000334500346	0
27	847	14.000080500346	1
27	848	14.000080500346	2
27	851	14.000114500346	1
27	852	14.000114500346	0
27	858	14.000464500346	1
27	859	14.000464500346	2
27	861	14.000534500346	1
27	862	14.000534500346	0
27	903	15.000080500346	1
27	904	15.000080500346	2
27	907	15.000114500346	1
27	908	15.000114500346	0
27	914	15.000164500346	1
27	915	15.000164500346	2
27	917	15.000234500346	1
27	918	15.000234500346	0
27	959	16.000080500346	1
27	960	16.000080500346	2
27	963	16.000114500346	1
27	964	16.000114500346	0
27	970	16.000224500346	1
27	971	16.000224500346	2
27	973	16.000294500346	1
27	974	16.000294500346	0
27	1015	17.000080500346	1
27	1016	17.000080500346	2
27	1019	17.000114500346	1
27	1020	17.000114500346	0
27	1026	17.000504500346	1
27	1027	17.000504500346	2
27	1029	17.000574500346	1
27	1030	17.000574500346	0
27	1071	18.000080500346	1
27	1072	18.000080500346	2
27	1075	18.000114500346	1
27	1076	18.000114500346	0
27	1082	18.000744500346	1
27	1083	18.000744500346	2
27	1085	18.000814500346	1
27	1086	18.000814500346	0
27	1127	19.000080500346	1
27	1128	19.000080500346	2
27	1131	19.000114500346	1
27	1132	19.000114500346	0
27	1138	19.000544500346	1
27	1139	19.000544500346	2
27	1141	19.000614500346	1
27	1142	19.000614500346	0
27	1183	20.000080500346	1
27	1184	20.000080500346	2
27	1187	20.000114500346	1
27	1188	20.000114500346	0
27	1194	20.000304500346	1
27	1195	20.000304500346	2
27	1197	20.000374500346	1
27	1198	20.000374500346	0
27	1239	21.000080500346	1
27	1240	21.000080500346	2
27	1243	21.000114500346	1
27	1244	21.000114500346	0
27	1250	21.000184500346	1
27	1251	21.000184500346	2
27	1253	21.000254500346	1
27	1254	21.000254500346	0
27	1295	22.000080500346	1
27	1296	22.000080500346	2
27	1299	22.000114500346	1
27	1300	22.000114500346	0
27	1306	22.000664500346	1
27	1307	22.000664500346	2
27	1309	22.000734500346	1
27	1310	22.000734500346	0
27	1351	23.000080500346	1
27	1352	23.000080500346	2
27	1355	23.000114500346	1
27	1356	23.000114500346	0
27	1362	23.000164500346	1
27	1363	23.000164500346	2
27	1365	23.000234500346	1
27	1366	23.000234500346	0
27	1407	24.000080500346	1
27	1408	24.000080500346	2
27	1411	24.000114500346	1
27	1412	24.000114500346	0
27	1418	24.000364500346	1
27	1419	24.000364500346	2
27	1421	24.000434500346	1
27	1422	24.000434500346	0
27	1463	25.000080500346	1
27	1464	25.000080500346	2
27	1467	25.000114500346	1
27	1468	25.000114500346	0
27	1474	25.000624500346	1
27	1475	25.000624500346	2
27	1477	25.000694500346	1
27	1478	25.000694500346	0
27	1519	26.000080500346	1
27	1520	26.000080500346	2
27	1523	26.000114500346	1
27	1524	26.000114500346	0
27	1530	26.000764500346	1
27	1531	26.000764500346	2
27	1533	26.000834500346	1
27	1534	26.000834500346	0
27	1575	27.000080500346	1
27	1576	27.000080500346	2
27	1579	27.000114500346	1
27	1580	27.000114500346	0
27	1586	27.000524500346	1
27	1587	27.000524500346	2
27	1589	27.000594500346	1
27	1590	27.000594500346	0
27	1631	28.000080500346	1
27	1632	28.000080500346	2
27	1635	28.000114500346	1
27	1636	28.000114500346	0
27	1642	28.000724500346	1
27	1643	28.000724500346	2
27	1645	28.000794500346	1
27	1646	28.000794500346	0
27	1687	29.000080500346	1
27	1688	29.000080500346	2
27	1691	29.000114500346	1
27	1692	29.000114500346	0
27	1698	29.000164500346	1
27	1699	29.000164500346	2
27	1701	29.000234500346	1
27	1702	29.000234500346	0
27	1743	30.000080500346	1
27	1744	30.000080500346	2
27	1747	30.000114500346	1
27	1748	30.000114500346	0
27	1754	30.000244500346	1
27	1755	30.000244500346	2
27	1757	30.000314500346	1
27	1758	30.000314500346	0
27	1799	31.000080500346	1
27	1800	31.000080500346	2
27	1803	31.000114500346	1
27	1804	31.000114500346	0
27	1810	31.000264500346	1
27	1811	31.000264500346	2
27	1813	31.000334500346	1
27	1814	31.000334500346	0
27	1855	32.000080500346	1
27	1856	32.000080500346	2
27	1859	32.000114500346	1
27	1860	32.000114500346	0
27	1866	32.000324500346	1
27	1867	32.000324500346	2
27	1869	32.000394500346	1
27	1870	32.000394500346	0
27	1911	33.000080500346	1
27	1912	33.000080500346	2
27	1915	33.000114500346	1
27	1916	33.000114500346	0
27	1922	33.000504500346	1
27	1923	33.000504500346	2
27	1925	33.000574500346	1
27	1926	33.000574500346	0
27	1967	34.000080500346	1
27	1968	34.000080500346	2
27	1971	34.000114500346	1
27	1972	34.000114500346	0
27	1978	34.000244500346	1
27	1979	34.000244500346	2
27	1981	34.000314500346	1
27	1982	34.000314500346	0
27	2023	35.000080500346	1
27	2024	35.000080500346	2
27	2027	35.000114500346	1
27	2028	35.000114500346	0
27	2034	35.000364500346	1
27	2035	35.000364500346	2
27	2037	35.000434500346	1
27	2038	35.000434500346	0
27	2079	36.000080500346	1
27	2080	36.000080500346	2
27	2083	36.000114500346	1
27	2084	36.000114500346	0
27	2090	36.000784500346	1
27	2091	36.000784500346	2
27	2093	36.000854500346	1
27	2094	36.000854500346	0
27	2135	37.000080500346	1
27	2136	37.000080500346	2
27	2139	37.000114500346	1
27	2140	37.000114500346	0
27	2146	37.000184500346	1
27	2147	37.000184500346	2
27	2149	37.000254500346	1
27	2150	37.000254500346	0
27	2191	38.000080500346	1
27	2192	38.000080500346	2
27	2195	38.000114500346	1
27	2196	38.000114500346	0
27	2202	38.000304500346	1
27	2203	38.000304500346	2
27	2205	38.000374500346	1
27	2206	38.000374500346	0
27	2247	39.000080500346	1
27	2248	39.000080500346	2
27	2251	39.000114500346	1
27	2252	39.000114500346	0
27	2258	39.000664500346	1
27	2259	39.000664500346	2
27	2261	39.000734500346	1
27	2262	39.000734500346	0
27	2303	40.000080500346	1
27	2304	40.000080500346	2
27	2307	40.000114500346	1
27	2308	40.000114500346	0
27	2314	40.000284500346	1
27	2315	40.000284500346	2
27	2317	40.000354500346	1
27	2318	40.000354500346	0
27	2359	41.000080500346	1
27	2360	41.000080500346	2
27	2363	41.000114500346	1
27	2364	41.000114500346	0
27	2370	41.000384500346	1
27	2371	41.000384500346	2
27	2373	41.000454500346	1
27	2374	41.000454500346	0
27	2415	42.000080500346	1
27	2416	42.000080500346	2
27	2419	42.000114500346	1
27	2420	42.000114500346	0
27	2426	42.000524500346	1
27	2427	42.000524500346	2
27	2429	42.000594500346	1
27	2430	42.000594500346	0
27	2471	43.000080500346	1
27	2472	43.000080500346	2
27	2475	43.000114500346	1
27	2476	43.000114500346	0
27	2482	43.000164500346	1
27	2483	43.000164500346	2
27	2485	43.000234500346	1
27	2486	43.000234500346	0
27	2527	44.000080500346	1
27	2528	44.000080500346	2
27	2531	44.000114500346	1
27	2532	44.000114500346	0
27	2538	44.000224500346	1
27	2539	44.000224500346	2
27	2541	44.000294500346	1
27	2542	44.000294500346	0
27	2583	45.000080500346	1
27	2584	45.000080500346	2
27	2587	45.000114500346	1
27	2588	45.000114500346	0
27	2594	45.000404500346	1
27	2595	45.000404500346	2
27	2597	45.000474500346	1
27	2598	45.000474500346	0
27	2639	46.000080500346	1
27	2640	46.000080500346	2
27	2643	46.000114500346	1
27	2644	46.000114500346	0
27	2650	46.000364500346	1
27	2651	46.000364500346	2
27	2653	46.000434500346	1
27	2654	46.000434500346	0
27	2695	47.000080500346	1
27	2696	47.000080500346	2
27	2699	47.000114500346	1
27	2700	47.000114500346	0
27	2706	47.000384500346	1
27	2707	47.000384500346	2
27	2709	47.000454500346	1
27	2710	47.000454500346	0
27	2751	48.000080500346	1
27	2752	48.000080500346	2
27	2755	48.000114500346	1
27	2756	48.000114500346	0
27	2762	48.000284500346	1
27	2763	48.000284500346	2
27	2765	48.000354500346	1
27	2766	48.000354500346	0
27	2807	49.000080500346	1
27	2808	49.000080500346	2
27	2811	49.000114500346	1
27	2812	49.000114500346	0
27	2818	49.000464500346	1
27	2819	49.000464500346	2
27	2821	49.000534500346	1
27	2822	49.000534500346	0
27	2863	50.000080500346	1
27	2864	50.000080500346	2
27	2867	50.000114500346	1
27	2868	50.000114500346	0
27	2874	50.000564500346	1
27	2875	50.000564500346	2
27	2877	50.000634500346	1
27	2878	50.000634500346	0
27	2919	51.000080500346	1
27	2920	51.000080500346	2
27	2923	51.000114500346	1
27	2924	51.000114500346	0
27	2930	51.000404500346	1
27	2931	51.000404500346	2
27	2933	51.000474500346	1
27	2934	51.000474500346	0
27	2975	52.000080500346	1
27	2976	52.000080500346	2
27	2979	52.000114500346	1
27	2980	52.000114500346	0
27	2986	52.000564500346	1
27	2987	52.000564500346	2
27	2989	52.000634500346	1
27	2990	52.000634500346	0
27	3031	53.000080500346	1
27	3032	53.000080500346	2
27	3035	53.000114500346	1
27	3036	53.000114500346	0
27	3042	53.000444500346	1
27	3043	53.000444500346	2
27	3045	53.000514500346	1
27	3046	53.000514500346	0
27	3087	54.000080500346	1
27	3088	54.000080500346	2
27	3091	54.000114500346	1
27	3092	54.000114500346	0
27	3098	54.000564500346	1
27	3099	54.000564500346	2
27	3101	54.000634500346	1
27	3102	54.000634500346	0
27	3143	55.000080500346	1
27	3144	55.000080500346	2
27	3147	55.000114500346	1
27	3148	55.000114500346	0
27	3154	55.000684500346	1
27	3155	55.000684500346	2
27	3157	55.000754500346	1
27	3158	55.000754500346	0
27	3199	56.000080500346	1
27	3200	56.000080500346	2
27	3203	56.000114500346	1
27	3204	56.000114500346	0
27	3210	56.000464500346	1
27	3211	56.000464500346	2
27	3213	56.000534500346	1
27	3214	56.000534500346	0
27	3255	57.000080500346	1
27	3256	57.000080500346	2
27	3259	57.000114500346	1
27	3260	57.000114500346	0
27	3266	57.000584500346	1
27	3267	57.000584500346	2
27	3269	57.000654500346	1
27	3270	57.000654500346	0
27	3311	58.000080500346	1
27	3312	58.000080500346	2
27	3315	58.000114500346	1
27	3316	58.000114500346	0
27	3322	58.000484500346	1
27	3323	58.000484500346	2
27	3325	58.000554500346	1
27	3326	58.000554500346	0
28	29	0.000401000692	64
28	67	0.000790001384	14
28	77	0.001290001384	120
28	126	1.000115000692	14
28	136	1.000595000692	120
28	182	2.000115000692	14
28	192	2.000695000692	120
28	238	3.000115000692	14
28	248	3.000715000692	120
28	294	4.000115000692	14
28	304	4.000475000692	120
28	350	5.000115000692	14
28	360	5.000255000692	120
28	406	6.000115000692	14
28	416	6.000375000692	120
28	462	7.000115000692	14
28	472	7.000515000692	120
28	518	8.000115000692	14
28	528	8.000575000692	120
28	574	9.000115000692	14
28	584	9.000735000692	120
28	630	10.000115000692	14
28	640	10.000395000692	120
28	686	11.000115000692	14
28	696	11.000635000692	120
28	742	12.000115000692	14
28	752	12.000555000692	120
28	798	13.000115000692	14
28	808	13.000335000692	120
28	854	14.000115000692	14
28	864	14.000535000692	120
28	910	15.000115000692	14
28	920	15.000235000692	120
28	966	16.000115000692	14
28	976	16.000295000692	120
28	1022	17.000115000692	14
28	1032	17.000575000692	120
28	1078	18.000115000692	14
28	1088	18.000815000692	120
28	1134	19.000115000692	14
28	1144	19.000615000692	120
28	1190	20.000115000692	14
28	1200	20.000375000692	120
28	1246	21.000115000692	14
28	1256	21.000255000692	120
28	1302	22.000115000692	14
28	1312	22.000735000692	120
28	1358	23.000115000692	14
28	1368	23.000235000692	120
28	1414	24.000115000692	14
28	1424	24.000435000692	120
28	1470	25.000115000692	14
28	1480	25.000695000692	120
28	1526	26.000115000692	14
28	1536	26.000835000692	120
28	1582	27.000115000692	14
28	1592	27.000595000692	120
28	1638	28.000115000692	14
28	1648	28.000795000692	120
28	1694	29.000115000692	14
28	1704	29.000235000692	120
28	1750	30.000115000692	14
28	1760	30.000315000692	120
28	1806	31.000115000692	14
28	1816	31.000335000692	120
28	1862	32.000115000692	14
28	1872	32.000395000692	120
28	1918	33.000115000692	14
28	1928	33.000575000692	120
28	1974	34.000115000692	14
28	1984	34.000315000692	120
28	2030	35.000115000692	14
28	2040	35.000435000692	120
28	2086	36.000115000692	14
28	2096	36.000855000692	120
28	2142	37.000115000692	14
28	2152	37.000255000692	120
28	2198	38.000115000692	14
28	2208	38.000375000692	120
28	2254	39.000115000692	14
28	2264	39.000735000692	120
28	2310	40.000115000692	14
28	2320	40.000355000692	120
28	2366	41.000115000692	14
28	2376	41.000455000692	120
28	2422	42.000115000692	14
28	2432	42.000595000692	120
28	2478	43.000115000692	14
28	2488	43.000235000692	120
28	2534	44.000115000692	14
28	2544	44.000295000692	120
28	2590	45.000115000692	14
28	2600	45.000475000692	120
28	2646	46.000115000692	14
28	2656	46.000435000692	120
28	2702	47.000115000692	14
28	2712	47.000455000692	120
28	2758	48.000115000692	14
28	2768	48.000355000692	120
28	2814	49.000115000692	14
28	2824	49.000535000692	120
28	2870	50.000115000692	14
28	2880	50.000635000692	120
28	2926	51.000115000692	14
28	2936	51.000475000692	120
28	2982	52.000115000692	14
28	2992	52.000635000692	120
28	3038	53.000115000692	14
28	3048	53.000515000692	120
28	3094	54.000115000692	14
28	3104	54.000635000692	120
28	3150	55.000115000692	14
28	3160	55.000755000692	120
28	3206	56.000115000692	14
28	3216	56.000535000692	120
28	3262	57.000115000692	14
28	3272	57.000655000692	120
28	3318	58.000115000692	14
28	3328	58.000555000692	120
29	29	0.000401000692	36
29	77	0.001290001384	92
29	136	1.000595000692	92
29	192	2.000695000692	92
29	248	3.000715000692	92
29	304	4.000475000692	92
29	360	5.000255000692	92
29	416	6.000375000692	92
29	472	7.000515000692	92
29	528	8.000575000692	92
29	584	9.000735000692	92
29	640	10.000395000692	92
29	696	11.000635000692	92
29	752	12.000555000692	92
29	808	13.000335000692	92
29	864	14.000535000692	92
29	920	15.000235000692	92
29	976	16.000295000692	92
29	1032	17.000575000692	92
29	1088	18.000815000692	92
29	1144	19.000615000692	92
29	1200	20.000375000692	92
29	1256	21.000255000692	92
29	1312	22.000735000692	92
29	1368	23.000235000692	92
29	1424	24.000435000692	92
29	1480	25.000695000692	92
29	1536	26.000835000692	92
29	1592	27.000595000692	92
29	1648	28.000795000692	92
29	1704	29.000235000692	92
29	1760	30.000315000692	92
29	1816	31.000335000692	92
29	1872	32.000395000692	92
29	1928	33.000575000692	92
29	1984	34.000315000692	92
29	2040	35.000435000692	92
29	2096	36.000855000692	92
29	2152	37.000255000692	92
29	2208	38.000375000692	92
29	2264	39.000735000692	92
29	2320	40.000355000692	92
29	2376	41.000455000692	92
29	2432	42.000595000692	92
29	2488	43.000235000692	92
29	2544	44.000295000692	92
29	2600	45.000475000692	92
29	2656	46.000435000692	92
29	2712	47.000455000692	92
29	2768	48.000355000692	92
29	2824	49.000535000692	92
29	2880	50.000635000692	92
29	2936	51.000475000692	92
29	2992	52.000635000692	92
29	3048	53.000515000692	92
29	3104	54.000635000692	92
29	3160	55.000755000692	92
29	3216	56.000535000692	92
29	3272	57.000655000692	92
29	3328	58.000555000692	92
30	80	0.001290001384	0
30	139	1.000595000692	1
30	195	2.000695000692	2
30	251	3.000715000692	3
30	307	4.000475000692	4
30	363	5.000255000692	5
30	419	6.000375000692	6
30	475	7.000515000692	7
30	531	8.000575000692	8
30	587	9.000735000692	9
30	643	10.000395000692	10
30	699	11.000635000692	11
30	755	12.000555000692	12
30	811	13.000335000692	13
30	867	14.000535000692	14
30	923	15.000235000692	15
30	979	16.000295000692	16
30	1035	17.000575000692	17
30	1091	18.000815000692	18
30	1147	19.000615000692	19
30	1203	20.000375000692	20
30	1259	21.000255000692	21
30	1315	22.000735000692	22
30	1371	23.000235000692	23
30	1427	24.000435000692	24
30	1483	25.000695000692	25
30	1539	26.000835000692	26
30	1595	27.000595000692	27
30	1651	28.000795000692	28
30	1707	29.000235000692	29
30	1763	30.000315000692	30
30	1819	31.000335000692	31
30	1875	32.000395000692	32
30	1931	33.000575000692	33
30	1987	34.000315000692	34
30	2043	35.000435000692	35
30	2099	36.000855000692	36
30	2155	37.000255000692	37
30	2211	38.000375000692	38
30	2267	39.000735000692	39
30	2323	40.000355000692	40
30	2379	41.000455000692	41
30	2435	42.000595000692	42
30	2491	43.000235000692	43
30	2547	44.000295000692	44
30	2603	45.000475000692	45
30	2659	46.000435000692	46
30	2715	47.000455000692	47
30	2771	48.000355000692	48
30	2827	49.000535000692	49
30	2883	50.000635000692	50
30	2939	51.000475000692	51
30	2995	52.000635000692	52
30	3051	53.000515000692	53
30	3107	54.000635000692	54
30	3163	55.000755000692	55
30	3219	56.000535000692	56
30	3275	57.000655000692	57
30	3331	58.000555000692	58
31	80	0.001290001384	0.001290001384
31	139	1.000595000692	0.000595000692
31	195	2.000695000692	0.000695000692
31	251	3.000715000692	0.000715000692
31	307	4.000475000692	0.000475000692
31	363	5.000255000692	0.000255000692
31	419	6.000375000692	0.000375000692
31	475	7.000515000692	0.000515000692
31	531	8.000575000692	0.000575000692
31	587	9.000735000692	0.000735000692
31	643	10.000395000692	0.000395000692
31	699	11.000635000692	0.000635000692
31	755	12.000555000692	0.000555000692
31	811	13.000335000692	0.000335000692
31	867	14.000535000692	0.000535000692
31	923	15.000235000692	0.000235000692
31	979	16.000295000692	0.000295000692
31	1035	17.000575000692	0.000575000692
31	1091	18.000815000692	0.000815000692
31	1147	19.000615000692	0.000615000692
31	1203	20.000375000692	0.000375000692
31	1259	21.000255000692	0.000255000692
31	1315	22.000735000692	0.000735000692
31	1371	23.000235000692	0.000235000692
31	1427	24.000435000692	0.000435000692
31	1483	25.000695000692	0.000695000692
31	1539	26.000835000692	0.000835000692
31	1595	27.000595000692	0.000595000692
31	1651	28.000795000692	0.000795000692
31	1707	29.000235000692	0.000235000692
31	1763	30.000315000692	0.000315000692
31	1819	31.000335000692	0.000335000692
31	1875	32.000395000692	0.000395000692
31	1931	33.000575000692	0.000575000692
31	1987	34.000315000692	0.000315000692
31	2043	35.000435000692	0.000435000692
31	2099	36.000855000692	0.000855000692
31	2155	37.000255000692	0.000255000692
31	2211	38.000375000692	0.000375000692
31	2267	39.000735000692	0.000735000692
31	2323	40.000355000692	0.000355000692
31	2379	41.000455000692	0.000455000692
31	2435	42.000595000692	0.000595000692
31	2491	43.000235000692	0.000235000692
31	2547	44.000295000692	0.000295000692
31	2603	45.000475000692	0.000475000692
31	2659	46.000435000692	0.000435000692
31	2715	47.000455000692	0.000455000692
31	2771	48.000355000692	0.000355000692
31	2827	49.000535000692	0.000535000692
31	2883	50.000635000692	0.000635000692
31	2939	51.000475000692	0.000475000692
31	2995	52.000635000692	0.000635000692
31	3051	53.000515000692	0.000515000692
31	3107	54.000635000692	0.000635000692
31	3163	55.000755000692	0.000755000692
31	3219	56.000535000692	0.000535000692
31	3275	57.000655000692	0.000655000692
31	3331	58.000555000692	0.000555000692

